*SPICE netlist created from verilog structural netlist module atbs_core_floating_window_board by vlog2Spice (qflow)
*This file may contain array delimiters, not for use in simulation.

.include /foss/pdks/ihp-sg13g2/libs.ref/sg13g2_stdcell/spice/sg13g2_stdcell.spice

.subckt atbs_core_floating_window_board VPWR VGND adaptive_mode_i clock_i comp_lower_i comp_upper_i control_mode_i
+ dac_lower_o[0] dac_lower_o[1] dac_lower_o[2] dac_lower_o[3] dac_lower_o[4] dac_lower_o[5] dac_lower_o[6] dac_lower_o[7]
+ dac_upper_o[0] dac_upper_o[1] dac_upper_o[2] dac_upper_o[3] dac_upper_o[4] dac_upper_o[5] dac_upper_o[6] dac_upper_o[7]
+ enable_i idle_led_o overflow_led_o reset_n_i select_tbs_delta_steps_i signal_select_in_i trigger_start_mode_i trigger_start_sampling_i
+ uart_rx_i uart_tx_o underflow_led_o 

X_06941_ \atbs_core_0.uart_0.uart_rx_0.n2848_o\ VPWR VGND _00748_ sg13g2_buf_1
X_06942_ _00748_ VPWR VGND _00749_ sg13g2_inv_1
X_06943_ \atbs_core_0.baudrate_adj_uart[2]\ VPWR VGND _00750_ sg13g2_buf_1
X_06944_ _00750_ VPWR VGND _00751_ sg13g2_inv_1
X_06945_ \atbs_core_0.uart_0.uart_rx_0.baud_counter_value[2]\ VPWR VGND _00752_ sg13g2_buf_1
X_06946_ \atbs_core_0.baudrate_adj_uart[5]\ VPWR VGND _00753_ sg13g2_buf_1
X_06947_ _00753_ VPWR VGND _00754_ sg13g2_buf_1
X_06948_ \atbs_core_0.uart_0.uart_rx_0.baud_counter_value[5]\ VPWR VGND _00755_ sg13g2_buf_1
X_06949_ _00754_ _00755_ \atbs_core_0.uart_0.uart_rx_0.baud_counter_value[8]\ VPWR VGND _00756_ sg13g2_nand3_1
X_06950_ _00753_ _00755_ \atbs_core_0.uart_0.uart_rx_0.baud_counter_value[8]\ VPWR VGND _00757_ sg13g2_or3_1
X_06951_ \atbs_core_0.baudrate_adj_uart[6]\ VPWR VGND _00758_ sg13g2_buf_1
X_06952_ \atbs_core_0.uart_0.uart_rx_0.baud_counter_value[6]\ VPWR VGND _00759_ sg13g2_buf_1
X_06953_ _00758_ _00759_ VPWR VGND _00760_ sg13g2_xor2_1
X_06954_ _00751_ _00752_ _00756_ _00757_ _00760_ VPWR 
+ VGND
+ _00761_ sg13g2_a221oi_1
X_06955_ \atbs_core_0.baudrate_adj_uart[4]\ VPWR VGND _00762_ sg13g2_buf_1
X_06956_ \atbs_core_0.uart_0.uart_rx_0.baud_counter_value[4]\ VPWR VGND _00763_ sg13g2_buf_1
X_06957_ _00762_ _00763_ VPWR VGND _00764_ sg13g2_nand2b_1
X_06958_ _00763_ _00762_ VPWR VGND _00765_ sg13g2_nand2b_1
X_06959_ _00752_ VPWR VGND _00766_ sg13g2_inv_1
X_06960_ \atbs_core_0.baudrate_adj_uart[1]\ VPWR VGND _00767_ sg13g2_buf_1
X_06961_ _00767_ \atbs_core_0.uart_0.uart_rx_0.baud_counter_value[3]\ VPWR VGND _00768_ sg13g2_xor2_1
X_06962_ _00750_ _00766_ _00768_ VPWR VGND _00769_ sg13g2_a21oi_1
X_06963_ _00764_ _00765_ _00769_ VPWR VGND _00770_ sg13g2_and3_1
X_06964_ \atbs_core_0.uart_0.uart_rx_0.baud_counter_value[1]\ VPWR VGND _00771_ sg13g2_buf_1
X_06965_ _00767_ _00771_ VPWR VGND _00772_ sg13g2_xor2_1
X_06966_ \atbs_core_0.uart_0.uart_rx_0.baud_counter_value[0]\ VPWR VGND _00773_ sg13g2_buf_1
X_06967_ \atbs_core_0.baudrate_adj_uart[0]\ VPWR VGND _00774_ sg13g2_buf_1
X_06968_ _00773_ _00774_ VPWR VGND _00775_ sg13g2_xor2_1
X_06969_ \atbs_core_0.baudrate_adj_uart[7]\ VPWR VGND _00776_ sg13g2_buf_1
X_06970_ \atbs_core_0.uart_0.uart_rx_0.baud_counter_value[7]\ VPWR VGND _00777_ sg13g2_buf_1
X_06971_ _00777_ VPWR VGND _00778_ sg13g2_inv_1
X_06972_ _00776_ _00778_ VPWR VGND _00779_ sg13g2_nor2_1
X_06973_ _00776_ VPWR VGND _00780_ sg13g2_inv_1
X_06974_ _00780_ _00777_ VPWR VGND _00781_ sg13g2_nor2_1
X_06975_ _00772_ _00775_ _00779_ _00781_ VPWR VGND 
+ _00782_
+ sg13g2_nor4_1
X_06976_ _00761_ _00770_ _00782_ VPWR VGND _00783_ sg13g2_nand3_1
X_06977_ _00783_ VPWR VGND _00784_ sg13g2_buf_1
X_06978_ \atbs_core_0.uart_0.uart_rx_0.n2891_o\ VPWR VGND _00785_ sg13g2_buf_1
X_06979_ \atbs_core_0.uart_0.uart_rx_0.n2889_o\ VPWR VGND _00786_ sg13g2_buf_1
X_06980_ \atbs_core_0.uart_0.uart_rx_0.n2897_o\ VPWR VGND _00787_ sg13g2_buf_1
X_06981_ _00785_ _00786_ _00787_ VPWR VGND _00788_ sg13g2_nand3_1
X_06982_ \atbs_core_0.uart_0.uart_rx_0.n2819_o\ VPWR VGND _00789_ sg13g2_buf_1
X_06983_ _00784_ _00788_ _00789_ VPWR VGND _00790_ sg13g2_o21ai_1
X_06984_ _00749_ _00784_ _00790_ VPWR VGND _00000_ sg13g2_o21ai_1
X_06985_ \atbs_core_0.uart_0.uart_tx_0.n2735_o\ VPWR VGND _00791_ sg13g2_buf_1
X_06986_ _00791_ VPWR VGND _00792_ sg13g2_inv_1
X_06987_ \atbs_core_0.uart_0.uart_tx_0.baud_counter_value[7]\ VPWR VGND _00793_ sg13g2_buf_1
X_06988_ _00776_ _00793_ VPWR VGND _00794_ sg13g2_xnor2_1
X_06989_ \atbs_core_0.uart_0.uart_tx_0.baud_counter_value[4]\ VPWR VGND _00795_ sg13g2_buf_1
X_06990_ _00762_ _00795_ VPWR VGND _00796_ sg13g2_xnor2_1
X_06991_ \atbs_core_0.uart_0.uart_tx_0.baud_counter_value[5]\ VPWR VGND _00797_ sg13g2_buf_1
X_06992_ \atbs_core_0.uart_0.uart_tx_0.baud_counter_value[8]\ VPWR VGND _00798_ sg13g2_buf_1
X_06993_ _00754_ _00797_ _00798_ VPWR VGND _00799_ sg13g2_nand3_1
X_06994_ _00753_ _00797_ _00798_ VPWR VGND _00800_ sg13g2_or3_1
X_06995_ \atbs_core_0.uart_0.uart_tx_0.baud_counter_value[1]\ VPWR VGND _00801_ sg13g2_buf_1
X_06996_ \atbs_core_0.uart_0.uart_tx_0.baud_counter_value[3]\ VPWR VGND _00802_ sg13g2_buf_1
X_06997_ _00767_ _00801_ _00802_ VPWR VGND _00803_ sg13g2_or3_1
X_06998_ _00767_ _00801_ _00802_ VPWR VGND _00804_ sg13g2_nand3_1
X_06999_ \atbs_core_0.uart_0.uart_tx_0.baud_counter_value[2]\ VPWR VGND _00805_ sg13g2_buf_1
X_07000_ _00751_ _00805_ VPWR VGND _00806_ sg13g2_nand2_1
X_07001_ _00805_ _00750_ VPWR VGND _00807_ sg13g2_nand2b_1
X_07002_ _00758_ \atbs_core_0.uart_0.uart_tx_0.baud_counter_value[6]\ VPWR VGND _00808_ sg13g2_xnor2_1
X_07003_ \atbs_core_0.uart_0.uart_tx_0.baud_counter_value[0]\ VPWR VGND _00809_ sg13g2_buf_1
X_07004_ _00774_ _00809_ VPWR VGND _00810_ sg13g2_xnor2_1
X_07005_ _00806_ _00807_ _00808_ _00810_ VPWR VGND 
+ _00811_
+ sg13g2_nand4_1
X_07006_ _00799_ _00800_ _00803_ _00804_ _00811_ VPWR 
+ VGND
+ _00812_ sg13g2_a221oi_1
X_07007_ _00794_ _00796_ _00812_ VPWR VGND _00813_ sg13g2_nand3_1
X_07008_ _00813_ VPWR VGND _00814_ sg13g2_buf_1
X_07009_ _00814_ VPWR VGND _00815_ sg13g2_buf_1
X_07010_ \atbs_core_0.uart_0.uart_tx_0.n2730_o\ VPWR VGND _00816_ sg13g2_buf_1
X_07011_ \atbs_core_0.uart_0.uart_tx_0.n2758_o\ VPWR VGND _00817_ sg13g2_inv_1
X_07012_ \atbs_core_0.uart_0.uart_tx_0.n2721_o\ VPWR VGND _00818_ sg13g2_inv_1
X_07013_ \atbs_core_0.memory2uart_0.n2040_q\ VPWR VGND _00819_ sg13g2_inv_1
X_07014_ _00817_ _00818_ _00819_ VPWR VGND _00820_ sg13g2_a21oi_1
X_07015_ _00816_ _00815_ _00820_ VPWR VGND _00821_ sg13g2_nor3_1
X_07016_ _00792_ _00815_ _00821_ VPWR VGND _00003_ sg13g2_a21oi_1
X_07017_ _00028_ VPWR VGND _00822_ sg13g2_inv_1
X_07018_ \atbs_core_0.dac_control_0.n1586_q\ VPWR VGND _00823_ sg13g2_buf_1
X_07019_ _00823_ VPWR VGND _00824_ sg13g2_inv_1
X_07020_ \atbs_core_0.main_counter_value[5]\ VPWR VGND _00825_ sg13g2_buf_1
X_07021_ \atbs_core_0.main_counter_value[2]\ _00825_ \atbs_core_0.main_counter_value[7]\ \atbs_core_0.main_counter_value[6]\ VPWR VGND 
+ _00826_
+ sg13g2_nor4_1
X_07022_ \atbs_core_0.main_counter_value[9]\ VPWR VGND _00827_ sg13g2_buf_1
X_07023_ \atbs_core_0.main_counter_value[8]\ VPWR VGND _00828_ sg13g2_buf_1
X_07024_ \atbs_core_0.main_counter_value[17]\ VPWR VGND _00829_ sg13g2_buf_1
X_07025_ \atbs_core_0.main_counter_value[16]\ VPWR VGND _00830_ sg13g2_buf_1
X_07026_ \atbs_core_0.main_counter_value[15]\ \atbs_core_0.main_counter_value[14]\ _00829_ _00830_ VPWR VGND 
+ _00831_
+ sg13g2_or4_1
X_07027_ _00827_ _00828_ \atbs_core_0.main_counter_value[11]\ _00831_ VPWR VGND 
+ _00832_
+ sg13g2_nor4_1
X_07028_ \atbs_core_0.main_counter_value[18]\ VPWR VGND _00833_ sg13g2_buf_1
X_07029_ _00833_ \atbs_core_0.main_counter_value[19]\ VPWR VGND _00834_ sg13g2_nor2_1
X_07030_ \atbs_core_0.main_counter_value[0]\ VPWR VGND _00835_ sg13g2_buf_1
X_07031_ \atbs_core_0.main_counter_value[10]\ VPWR VGND _00836_ sg13g2_buf_1
X_07032_ \atbs_core_0.main_counter_value[13]\ VPWR VGND _00837_ sg13g2_buf_1
X_07033_ \atbs_core_0.main_counter_value[12]\ VPWR VGND _00838_ sg13g2_buf_1
X_07034_ _00835_ _00836_ _00837_ _00838_ VPWR VGND 
+ _00839_
+ sg13g2_nor4_1
X_07035_ _00826_ _00832_ _00834_ _00839_ VPWR VGND 
+ _00840_
+ sg13g2_and4_1
X_07036_ _00840_ VPWR VGND _00841_ sg13g2_buf_1
X_07037_ \atbs_core_0.n1074_q[2]\ VPWR VGND _00842_ sg13g2_buf_1
X_07038_ \atbs_core_0.n1074_q[0]\ VPWR VGND _00843_ sg13g2_buf_1
X_07039_ _00843_ VPWR VGND _00844_ sg13g2_inv_1
X_07040_ _00844_ _00027_ VPWR VGND _00845_ sg13g2_nand2_1
X_07041_ \atbs_core_0.main_counter_value[1]\ VPWR VGND _00846_ sg13g2_buf_1
X_07042_ \atbs_core_0.main_counter_value[3]\ VPWR VGND _00847_ sg13g2_inv_1
X_07043_ \atbs_core_0.main_counter_value[4]\ VPWR VGND _00848_ sg13g2_buf_1
X_07044_ \atbs_core_0.n1074_q[1]\ VPWR VGND _00849_ sg13g2_buf_1
X_07045_ _00846_ _00847_ _00848_ _00849_ VPWR VGND 
+ _00850_
+ sg13g2_nand4_1
X_07046_ _00842_ _00845_ _00850_ VPWR VGND _00851_ sg13g2_nor3_1
X_07047_ _00841_ _00851_ VPWR VGND _00852_ sg13g2_nand2_1
X_07048_ \atbs_core_0.control_mode_debounced\ VPWR VGND _00853_ sg13g2_buf_16
X_07049_ _00853_ _00008_ VPWR VGND _00854_ sg13g2_nor2b_1
X_07050_ _00009_ _00853_ _00854_ VPWR VGND _00855_ sg13g2_a21oi_2
X_07051_ _00855_ VPWR VGND _00856_ sg13g2_buf_1
X_07052_ _00856_ VPWR VGND _00857_ sg13g2_buf_1
X_07053_ _00857_ VPWR VGND _00858_ sg13g2_buf_1
X_07054_ _00024_ VPWR VGND _00859_ sg13g2_buf_1
X_07055_ \atbs_core_0.adaptive_ctrl_0.adapt_on_overflow\ VPWR VGND _00860_ sg13g2_buf_2
X_07056_ _00860_ VPWR VGND _00861_ sg13g2_inv_1
X_07057_ _00861_ VPWR VGND _00862_ sg13g2_buf_1
X_07058_ _00025_ VPWR VGND _00863_ sg13g2_inv_1
X_07059_ \atbs_core_0.spike_detector_0.lock_detection\ \atbs_core_0.detection_en\ VPWR VGND _00864_ sg13g2_nand2b_1
X_07060_ _00008_ _00009_ _00853_ VPWR VGND _00865_ sg13g2_mux2_1
X_07061_ _00865_ VPWR VGND _00866_ sg13g2_buf_4
X_07062_ \atbs_core_0.n1054_q\ _00866_ VPWR VGND _00867_ sg13g2_nor2b_2
X_07063_ \atbs_core_0.adaptive_ctrl_0.n1373_o[5]\ VPWR VGND _00868_ sg13g2_buf_1
X_07064_ \atbs_core_0.adaptive_ctrl_0.n1373_o[4]\ VPWR VGND _00869_ sg13g2_buf_2
X_07065_ _00868_ _00869_ VPWR VGND _00870_ sg13g2_or2_1
X_07066_ \atbs_core_0.adaptive_ctrl_0.n1373_o[1]\ VPWR VGND _00871_ sg13g2_buf_4
X_07067_ \atbs_core_0.adaptive_ctrl_0.n1373_o[0]\ VPWR VGND _00872_ sg13g2_buf_2
X_07068_ \atbs_core_0.adaptive_ctrl_0.n1373_o[6]\ VPWR VGND _00873_ sg13g2_buf_2
X_07069_ \atbs_core_0.adaptive_ctrl_0.n1449_q[8]\ VPWR VGND _00874_ sg13g2_buf_2
X_07070_ _00871_ _00872_ _00873_ _00874_ VPWR VGND 
+ _00875_
+ sg13g2_or4_1
X_07071_ \atbs_core_0.adaptive_ctrl_0.n1373_o[3]\ VPWR VGND _00876_ sg13g2_buf_2
X_07072_ \atbs_core_0.adaptive_ctrl_0.n1373_o[2]\ VPWR VGND _00877_ sg13g2_buf_1
X_07073_ \atbs_core_0.adaptive_ctrl_0.n1373_o[7]\ VPWR VGND _00878_ sg13g2_buf_2
X_07074_ _00876_ _00877_ _00878_ VPWR VGND _00879_ sg13g2_or3_1
X_07075_ _00866_ _00870_ _00875_ _00879_ VPWR VGND 
+ _00880_
+ sg13g2_nor4_2
X_07076_ \atbs_core_0.comp_lower_sync\ _00864_ _00867_ _00880_ VPWR VGND 
+ _00881_
+ sg13g2_or4_1
X_07077_ _00881_ VPWR VGND _00882_ sg13g2_buf_8
X_07078_ _00866_ VPWR VGND _00883_ sg13g2_buf_16
X_07079_ \atbs_core_0.adaptive_ctrl_0.n1368_o[7]\ VPWR VGND _00884_ sg13g2_buf_1
X_07080_ \atbs_core_0.adaptive_ctrl_0.n1448_q[8]\ VPWR VGND _00885_ sg13g2_buf_1
X_07081_ _00884_ _00885_ VPWR VGND _00886_ sg13g2_or2_1
X_07082_ \atbs_core_0.adaptive_ctrl_0.n1368_o[1]\ VPWR VGND _00887_ sg13g2_buf_1
X_07083_ \atbs_core_0.adaptive_ctrl_0.n1368_o[5]\ VPWR VGND _00888_ sg13g2_buf_1
X_07084_ \atbs_core_0.adaptive_ctrl_0.n1368_o[4]\ VPWR VGND _00889_ sg13g2_buf_1
X_07085_ \atbs_core_0.adaptive_ctrl_0.n1368_o[6]\ VPWR VGND _00890_ sg13g2_buf_2
X_07086_ _00887_ _00888_ _00889_ _00890_ VPWR VGND 
+ _00891_
+ sg13g2_or4_1
X_07087_ \atbs_core_0.adaptive_ctrl_0.n1368_o[0]\ VPWR VGND _00892_ sg13g2_buf_2
X_07088_ \atbs_core_0.adaptive_ctrl_0.n1368_o[3]\ VPWR VGND _00893_ sg13g2_buf_2
X_07089_ \atbs_core_0.adaptive_ctrl_0.n1368_o[2]\ VPWR VGND _00894_ sg13g2_buf_1
X_07090_ _00892_ _00893_ _00894_ VPWR VGND _00895_ sg13g2_or3_1
X_07091_ _00883_ _00886_ _00891_ _00895_ VPWR VGND 
+ _00896_
+ sg13g2_nor4_2
X_07092_ _00896_ VPWR VGND _00897_ sg13g2_buf_8
X_07093_ \atbs_core_0.n1053_q\ VPWR VGND _00898_ sg13g2_inv_1
X_07094_ \atbs_core_0.spike_detector_0.lock_detection\ \atbs_core_0.detection_en\ \atbs_core_0.comp_upper_sync\ VPWR VGND _00899_ sg13g2_nand3b_1
X_07095_ _00898_ _00883_ _00899_ VPWR VGND _00900_ sg13g2_a21o_1
X_07096_ _00900_ VPWR VGND _00901_ sg13g2_buf_4
X_07097_ _00897_ _00901_ VPWR VGND _00902_ sg13g2_nor2_2
X_07098_ _00863_ _00882_ _00902_ VPWR VGND _00903_ sg13g2_a21oi_2
X_07099_ _00903_ VPWR VGND _00904_ sg13g2_buf_8
X_07100_ _00904_ VPWR VGND _00905_ sg13g2_buf_8
X_07101_ _00862_ _00905_ VPWR VGND _00906_ sg13g2_nand2_1
X_07102_ _00871_ VPWR VGND _00907_ sg13g2_inv_1
X_07103_ \atbs_core_0.adaptive_ctrl_0.delta_steps[0]\ VPWR VGND _00908_ sg13g2_buf_2
X_07104_ _00872_ VPWR VGND _00909_ sg13g2_inv_1
X_07105_ _00907_ \atbs_core_0.adaptive_ctrl_0.delta_steps[1]\ _00908_ _00909_ VPWR VGND 
+ _00910_
+ sg13g2_a22oi_1
X_07106_ \atbs_core_0.adaptive_ctrl_0.delta_steps[1]\ VPWR VGND _00911_ sg13g2_buf_2
X_07107_ \atbs_core_0.adaptive_ctrl_0.delta_steps[2]\ VPWR VGND _00912_ sg13g2_buf_2
X_07108_ _00912_ _00877_ VPWR VGND _00913_ sg13g2_nand2b_1
X_07109_ _00907_ _00911_ _00913_ VPWR VGND _00914_ sg13g2_o21ai_1
X_07110_ \atbs_core_0.adaptive_ctrl_0.delta_steps[3]\ VPWR VGND _00915_ sg13g2_buf_2
X_07111_ _00876_ _00915_ VPWR VGND _00916_ sg13g2_xor2_1
X_07112_ _00877_ \atbs_core_0.adaptive_ctrl_0.delta_steps[2]\ VPWR VGND _00917_ sg13g2_nor2b_1
X_07113_ \atbs_core_0.adaptive_ctrl_0.delta_steps[4]\ VPWR VGND _00918_ sg13g2_buf_4
X_07114_ _00869_ _00918_ VPWR VGND _00919_ sg13g2_nor2b_1
X_07115_ _00918_ _00869_ VPWR VGND _00920_ sg13g2_nor2b_1
X_07116_ _00916_ _00917_ _00919_ _00920_ VPWR VGND 
+ _00921_
+ sg13g2_nor4_1
X_07117_ _00910_ _00914_ _00921_ VPWR VGND _00922_ sg13g2_o21ai_1
X_07118_ _00876_ VPWR VGND _00923_ sg13g2_inv_1
X_07119_ _00923_ _00915_ _00919_ VPWR VGND _00924_ sg13g2_nor3_1
X_07120_ _00878_ VPWR VGND _00925_ sg13g2_inv_2
X_07121_ \atbs_core_0.adaptive_ctrl_0.delta_steps[7]\ VPWR VGND _00926_ sg13g2_buf_2
X_07122_ _00874_ VPWR VGND _00927_ sg13g2_inv_1
X_07123_ _00925_ _00926_ _00927_ VPWR VGND _00928_ sg13g2_o21ai_1
X_07124_ \atbs_core_0.adaptive_ctrl_0.delta_steps[5]\ _00868_ VPWR VGND _00929_ sg13g2_nand2b_1
X_07125_ \atbs_core_0.adaptive_ctrl_0.delta_steps[6]\ VPWR VGND _00930_ sg13g2_buf_4
X_07126_ _00930_ _00873_ VPWR VGND _00931_ sg13g2_nand2b_1
X_07127_ _00873_ _00930_ VPWR VGND _00932_ sg13g2_nor2b_1
X_07128_ _00929_ _00931_ _00932_ VPWR VGND _00933_ sg13g2_a21oi_1
X_07129_ _00920_ _00924_ _00928_ _00933_ VPWR VGND 
+ _00934_
+ sg13g2_nor4_2
X_07130_ \atbs_core_0.adaptive_ctrl_0.delta_steps[5]\ VPWR VGND _00935_ sg13g2_buf_4
X_07131_ _00868_ _00935_ VPWR VGND _00936_ sg13g2_nor2b_1
X_07132_ _00925_ _00926_ _00931_ _00936_ _00932_ VPWR 
+ VGND
+ _00937_ sg13g2_a221oi_1
X_07133_ _00928_ _00937_ VPWR VGND _00938_ sg13g2_nor2_1
X_07134_ _00922_ _00934_ _00938_ VPWR VGND _00939_ sg13g2_a21o_1
X_07135_ _00939_ VPWR VGND _00940_ sg13g2_buf_2
X_07136_ _00859_ _00023_ _00906_ _00940_ VPWR VGND 
+ _00941_
+ sg13g2_or4_1
X_07137_ \atbs_core_0.adaptive_ctrl_0.delta_steps_strb\ _00941_ VPWR VGND _00942_ sg13g2_and2_1
X_07138_ _00942_ VPWR VGND _00943_ sg13g2_buf_2
X_07139_ _00883_ VPWR VGND _00944_ sg13g2_buf_1
X_07140_ _00898_ _00944_ _00897_ VPWR VGND _00945_ sg13g2_a21oi_1
X_07141_ \atbs_core_0.comp_lower_sync\ _00867_ _00880_ VPWR VGND _00946_ sg13g2_nor3_1
X_07142_ \atbs_core_0.comp_upper_sync\ _00945_ _00946_ VPWR VGND _00947_ sg13g2_a21oi_1
X_07143_ _00864_ _00947_ VPWR VGND _00948_ sg13g2_or2_1
X_07144_ _00948_ VPWR VGND _00949_ sg13g2_buf_1
X_07145_ _00858_ _00949_ VPWR VGND _00950_ sg13g2_nor2_1
X_07146_ _00858_ _00943_ _00950_ VPWR VGND _00951_ sg13g2_a21oi_1
X_07147_ _00822_ _00824_ _00852_ _00951_ VPWR VGND 
+ _00952_
+ sg13g2_a22oi_1
X_07148_ _00952_ VPWR VGND \atbs_core_0.dac_control_0.dac_counter_strb\ sg13g2_buf_1
X_07149_ _00784_ VPWR VGND _00953_ sg13g2_inv_1
X_07150_ _00787_ _00953_ VPWR VGND _00954_ sg13g2_nand2_1
X_07151_ _00789_ _00785_ _00786_ VPWR VGND _00955_ sg13g2_nand3_1
X_07152_ \atbs_core_0.uart_0.uart_rx_0.n2873_o\ VPWR VGND _00956_ sg13g2_buf_1
X_07153_ _00753_ _00777_ VPWR VGND _00957_ sg13g2_or2_1
X_07154_ _00763_ _00753_ _00777_ VPWR VGND _00958_ sg13g2_nand3_1
X_07155_ _00763_ _00957_ _00958_ VPWR VGND _00959_ sg13g2_o21ai_1
X_07156_ _00759_ _00776_ VPWR VGND _00960_ sg13g2_xnor2_1
X_07157_ _00006_ _00959_ _00960_ VPWR VGND _00961_ sg13g2_nand3_1
X_07158_ _00773_ _00752_ VPWR VGND _00962_ sg13g2_or2_1
X_07159_ _00767_ _00773_ _00752_ VPWR VGND _00963_ sg13g2_nand3_1
X_07160_ _00767_ _00962_ _00963_ VPWR VGND _00964_ sg13g2_o21ai_1
X_07161_ _00771_ _00750_ VPWR VGND _00965_ sg13g2_xor2_1
X_07162_ \atbs_core_0.uart_0.uart_rx_0.baud_counter_value[3]\ _00762_ VPWR VGND _00966_ sg13g2_xor2_1
X_07163_ _00755_ _00758_ VPWR VGND _00967_ sg13g2_xor2_1
X_07164_ _00965_ _00966_ _00967_ VPWR VGND _00968_ sg13g2_nor3_1
X_07165_ _00961_ _00964_ _00968_ VPWR VGND _00969_ sg13g2_nand3b_1
X_07166_ _00956_ _00969_ VPWR VGND _00970_ sg13g2_nand2_1
X_07167_ _00954_ _00955_ _00970_ VPWR VGND _00002_ sg13g2_o21ai_1
X_07168_ \atbs_core_0.uart_0.uart_rx_0.n2834_o\ VPWR VGND _00971_ sg13g2_buf_1
X_07169_ uart_rx_i VPWR VGND _00972_ sg13g2_inv_1
X_07170_ _00971_ _00972_ _00784_ _00748_ VPWR VGND 
+ _00973_
+ sg13g2_a22oi_1
X_07171_ _00973_ VPWR VGND _00001_ sg13g2_inv_1
X_07172_ \atbs_core_0.uart_0.uart_tx_0.n2780_q[1]\ VPWR VGND _00974_ sg13g2_buf_1
X_07173_ \atbs_core_0.uart_0.uart_tx_0.n2780_q[0]\ VPWR VGND _00975_ sg13g2_buf_1
X_07174_ \atbs_core_0.uart_0.uart_tx_0.n2780_q[2]\ VPWR VGND _00976_ sg13g2_buf_1
X_07175_ _00974_ _00975_ _00976_ VPWR VGND _00977_ sg13g2_nand3_1
X_07176_ \atbs_core_0.uart_0.uart_tx_0.n2699_o\ VPWR VGND _00978_ sg13g2_buf_1
X_07177_ _00815_ _00977_ _00978_ VPWR VGND _00979_ sg13g2_o21ai_1
X_07178_ _00792_ _00815_ _00979_ VPWR VGND _00005_ sg13g2_o21ai_1
X_07179_ _00818_ _00031_ VPWR VGND _00980_ sg13g2_nor2_1
X_07180_ _00816_ _00980_ _00815_ VPWR VGND _00981_ sg13g2_o21ai_1
X_07181_ _00981_ VPWR VGND _00004_ sg13g2_inv_1
X_07182_ \atbs_core_0.enable_read\ VPWR VGND _00982_ sg13g2_inv_1
X_07183_ \atbs_core_0.spike_memory_0.head[1]\ \atbs_core_0.spike_memory_0.n1973_q[1]\ VPWR VGND _00983_ sg13g2_xor2_1
X_07184_ _00983_ VPWR VGND _00984_ sg13g2_buf_1
X_07185_ \atbs_core_0.spike_memory_0.n1973_q[0]\ VPWR VGND _00985_ sg13g2_buf_1
X_07186_ \atbs_core_0.spike_memory_0.head[0]\ VPWR VGND _00986_ sg13g2_buf_1
X_07187_ _00985_ _00986_ VPWR VGND _00987_ sg13g2_nor2b_1
X_07188_ _00986_ _00985_ VPWR VGND _00988_ sg13g2_nor2b_1
X_07189_ _00984_ _00987_ _00988_ VPWR VGND _00989_ sg13g2_nor3_1
X_07190_ _00982_ \atbs_core_0.spike_memory_0.n1912_o\ _00989_ VPWR VGND _00990_ sg13g2_nor3_1
X_07191_ _00990_ VPWR VGND \atbs_core_0.spike_memory_0.n1914_o\ sg13g2_buf_1
X_07192_ \atbs_core_0.spike_detector_0.n1258_q\ \atbs_core_0.spike_detector_0.lower_is_changing\ VPWR VGND _00991_ sg13g2_nor2_1
X_07193_ _00991_ VPWR VGND \atbs_core_0.spike_detector_0.n1246_o\ sg13g2_inv_1
X_07194_ _00904_ VPWR VGND _00992_ sg13g2_inv_16
X_07195_ _00935_ VPWR VGND _00993_ sg13g2_inv_1
X_07196_ _00930_ _00890_ VPWR VGND _00994_ sg13g2_nor2b_1
X_07197_ _00889_ _00918_ VPWR VGND _00995_ sg13g2_nand2b_1
X_07198_ _00993_ _00994_ _00995_ VPWR VGND _00996_ sg13g2_nor3_1
X_07199_ _00930_ VPWR VGND _00997_ sg13g2_inv_1
X_07200_ _00890_ _00997_ _00993_ _00995_ _00888_ VPWR 
+ VGND
+ _00998_ sg13g2_a221oi_1
X_07201_ _00890_ _00997_ _00026_ VPWR VGND _00999_ sg13g2_o21ai_1
X_07202_ _00996_ _00998_ _00999_ VPWR VGND _01000_ sg13g2_or3_1
X_07203_ _00884_ _00885_ VPWR VGND _01001_ sg13g2_nor2_1
X_07204_ _00926_ _01000_ _01001_ VPWR VGND _01002_ sg13g2_o21ai_1
X_07205_ _01002_ VPWR VGND _01003_ sg13g2_buf_2
X_07206_ _00892_ _00908_ VPWR VGND _01004_ sg13g2_nor2b_1
X_07207_ _00911_ _01004_ VPWR VGND _01005_ sg13g2_nor2_1
X_07208_ _00893_ VPWR VGND _01006_ sg13g2_inv_1
X_07209_ _00894_ _00912_ VPWR VGND _01007_ sg13g2_nor2b_1
X_07210_ _01006_ _00915_ _00911_ _01004_ _01007_ VPWR 
+ VGND
+ _01008_ sg13g2_a221oi_1
X_07211_ _00887_ _01005_ _01008_ VPWR VGND _01009_ sg13g2_o21ai_1
X_07212_ _00915_ VPWR VGND _01010_ sg13g2_inv_1
X_07213_ _00912_ _00894_ VPWR VGND _01011_ sg13g2_nor2b_1
X_07214_ _01010_ _01011_ _00893_ VPWR VGND _01012_ sg13g2_o21ai_1
X_07215_ _00918_ VPWR VGND _01013_ sg13g2_inv_1
X_07216_ _00915_ _00912_ VPWR VGND _01014_ sg13g2_nor2_1
X_07217_ _00889_ _01013_ _01014_ _00894_ _00885_ VPWR 
+ VGND
+ _01015_ sg13g2_a221oi_1
X_07218_ _00926_ VPWR VGND _01016_ sg13g2_inv_1
X_07219_ _00884_ _01016_ _00993_ _00888_ _00994_ VPWR 
+ VGND
+ _01017_ sg13g2_a221oi_1
X_07220_ _01012_ _01015_ _01017_ VPWR VGND _01018_ sg13g2_and3_1
X_07221_ _00885_ _00926_ VPWR VGND _01019_ sg13g2_nor2b_1
X_07222_ _01009_ _01018_ _01000_ _01019_ VPWR VGND 
+ _01020_
+ sg13g2_a22oi_1
X_07223_ _01020_ VPWR VGND _01021_ sg13g2_buf_4
X_07224_ _00992_ _01003_ _01021_ VPWR VGND _01022_ sg13g2_and3_2
X_07225_ _01022_ VPWR VGND _01023_ sg13g2_buf_8
X_07226_ _00860_ _01023_ VPWR VGND _01024_ sg13g2_nor2_1
X_07227_ _00992_ VPWR VGND \atbs_core_0.adaptive_ctrl_0.spike_i\ sg13g2_buf_8
X_07228_ _00029_ \atbs_core_0.adaptive_ctrl_0.spike_i\ VPWR VGND _01025_ sg13g2_nand2_1
X_07229_ _01025_ VPWR VGND _01026_ sg13g2_buf_2
X_07230_ _00859_ _00023_ _01024_ _01026_ VPWR VGND 
+ _01027_
+ sg13g2_nor4_1
X_07231_ _01027_ \atbs_core_0.adaptive_ctrl_0.delta_steps_strb\ VPWR VGND _01028_ sg13g2_nand2b_1
X_07232_ _01028_ VPWR VGND _01029_ sg13g2_buf_1
X_07233_ _01029_ VPWR VGND _01030_ sg13g2_inv_1
X_07234_ _00858_ _01030_ _00950_ VPWR VGND _01031_ sg13g2_a21oi_1
X_07235_ _00852_ _01031_ VPWR VGND _01032_ sg13g2_nand2_1
X_07236_ _00853_ \atbs_core_0.debouncer_4.debounced\ VPWR VGND _01033_ sg13g2_nor2b_1
X_07237_ _00853_ \atbs_core_0.enable_analog_uart\ _01033_ VPWR VGND _01034_ sg13g2_a21o_1
X_07238_ _01034_ VPWR VGND _01035_ sg13g2_buf_1
X_07239_ _01032_ _01035_ \atbs_core_0.dac_control_1.n1629_o\ VPWR VGND \atbs_core_0.dac_control_1.n1632_o\ sg13g2_mux2_1
X_07240_ \atbs_core_0.dac_control_1.n1721_q\ VPWR VGND _01036_ sg13g2_buf_4
X_07241_ _01036_ VPWR VGND _01037_ sg13g2_inv_1
X_07242_ _00852_ _01031_ VPWR VGND _01038_ sg13g2_and2_1
X_07243_ _01038_ VPWR VGND _01039_ sg13g2_buf_1
X_07244_ \atbs_core_0.dac_control_1.n1629_o\ _01037_ _01039_ VPWR VGND \atbs_core_0.dac_control_1.dac_counter_strb\ sg13g2_a21oi_1
X_07245_ _00978_ VPWR VGND _01040_ sg13g2_inv_1
X_07246_ _01040_ _00977_ VPWR VGND _01041_ sg13g2_nor2_1
X_07247_ _01041_ \atbs_core_0.uart_0.uart_tx_0.n2758_o\ _00815_ VPWR VGND \atbs_core_0.uart_0.uart_tx_0.n2766_o[2]\ sg13g2_mux2_1
X_07248_ \atbs_core_0.uart_0.rx_data_strb_o\ VPWR VGND _01042_ sg13g2_inv_1
X_07249_ _01042_ \atbs_core_0.n1061_q\ \atbs_core_0.analog_trigger_uart\ VPWR VGND _01043_ sg13g2_nor3_1
X_07250_ \atbs_core_0.uart_0.uart_rx_0.n2915_o\ VPWR VGND _01044_ sg13g2_inv_1
X_07251_ \atbs_core_0.uart_0.uart_rx_0.n2921_o\ \atbs_core_0.uart_0.uart_rx_0.n2919_o\ VPWR VGND _01045_ sg13g2_nand2b_1
X_07252_ \atbs_core_0.uart_0.uart_rx_0.n2917_o\ _01044_ _01045_ VPWR VGND _01046_ sg13g2_nor3_1
X_07253_ _00049_ _01046_ VPWR VGND _01047_ sg13g2_nand2_1
X_07254_ \atbs_core_0.uart_0.uart_rx_0.n2907_o\ VPWR VGND _01048_ sg13g2_buf_1
X_07255_ \atbs_core_0.atbs_win_length_uart\ VPWR VGND _01049_ sg13g2_buf_1
X_07256_ _01049_ \atbs_core_0.atbs_max_delta_steps_uart\ VPWR VGND _01050_ sg13g2_nor2_1
X_07257_ \atbs_core_0.uart_0.uart_rx_0.n2909_o\ VPWR VGND _01051_ sg13g2_buf_1
X_07258_ \atbs_core_0.uart_0.uart_rx_0.n2913_o\ VPWR VGND _01052_ sg13g2_buf_1
X_07259_ \atbs_core_0.uart_0.uart_rx_0.n2911_o\ VPWR VGND _01053_ sg13g2_buf_1
X_07260_ _01052_ _01053_ VPWR VGND _01054_ sg13g2_nor2b_1
X_07261_ _01051_ _01054_ VPWR VGND _01055_ sg13g2_nor2b_1
X_07262_ \atbs_core_0.uart_0.uart_rx_0.n2917_o\ VPWR VGND _01056_ sg13g2_inv_1
X_07263_ _01056_ _01044_ \atbs_core_0.uart_0.uart_rx_0.n2921_o\ \atbs_core_0.uart_0.uart_rx_0.n2919_o\ VPWR VGND 
+ _01057_
+ sg13g2_or4_1
X_07264_ _01057_ VPWR VGND _01058_ sg13g2_buf_1
X_07265_ _01048_ _01050_ _01055_ _01058_ VPWR VGND 
+ _01059_
+ sg13g2_nand4_1
X_07266_ _01047_ _01059_ _00048_ VPWR VGND _01060_ sg13g2_o21ai_1
X_07267_ \atbs_core_0.debouncer_5.debounced\ \atbs_core_0.n1049_q\ VPWR VGND _01061_ sg13g2_xor2_1
X_07268_ \atbs_core_0.adaptive_mode_d\ \atbs_core_0.adaptive_mode_debounced\ VPWR VGND _01062_ sg13g2_xor2_1
X_07269_ _00853_ \atbs_core_0.control_mode_d\ VPWR VGND _01063_ sg13g2_xor2_1
X_07270_ _01061_ _01062_ _01063_ VPWR VGND _01064_ sg13g2_nor3_1
X_07271_ \atbs_core_0.n1050_q\ \atbs_core_0.debouncer_0.debounced\ VPWR VGND _01065_ sg13g2_xnor2_1
X_07272_ \atbs_core_0.n1048_q\ \atbs_core_0.debouncer_3.debounced\ VPWR VGND _01066_ sg13g2_xnor2_1
X_07273_ _01064_ _01065_ _01066_ VPWR VGND _01067_ sg13g2_nand3_1
X_07274_ _01043_ _01060_ _01067_ VPWR VGND _01068_ sg13g2_a21oi_1
X_07275_ _00849_ VPWR VGND _01069_ sg13g2_buf_1
X_07276_ _01069_ _00843_ VPWR VGND _01070_ sg13g2_nor2_1
X_07277_ _00849_ VPWR VGND _01071_ sg13g2_inv_1
X_07278_ _01071_ _00844_ VPWR VGND _01072_ sg13g2_nor2_1
X_07279_ _01070_ _01072_ _00842_ VPWR VGND _01073_ sg13g2_o21ai_1
X_07280_ _01068_ _01073_ VPWR VGND _01074_ sg13g2_nor2_1
X_07281_ \atbs_core_0.atbs_max_delta_steps_uart\ VPWR VGND _01075_ sg13g2_inv_1
X_07282_ \atbs_core_0.n1067_q\ VPWR VGND _01076_ sg13g2_inv_1
X_07283_ \atbs_core_0.baudrate_uart\ VPWR VGND _01077_ sg13g2_buf_1
X_07284_ _01077_ _01043_ VPWR VGND _01078_ sg13g2_nor2b_1
X_07285_ _01076_ _01078_ VPWR VGND _01079_ sg13g2_and2_1
X_07286_ _01079_ VPWR VGND _01080_ sg13g2_buf_1
X_07287_ _01049_ _01080_ VPWR VGND _01081_ sg13g2_nor2b_1
X_07288_ _01053_ _01052_ VPWR VGND _01082_ sg13g2_nor2_1
X_07289_ _01051_ _01082_ VPWR VGND _01083_ sg13g2_nand2_1
X_07290_ _01048_ _01083_ VPWR VGND _01084_ sg13g2_nor2_1
X_07291_ _01075_ _01081_ _01046_ _01084_ VPWR VGND 
+ _01085_
+ sg13g2_nand4_1
X_07292_ \atbs_core_0.n31_o\ _01085_ VPWR VGND _00120_ sg13g2_and2_1
X_07293_ _01074_ _00120_ VPWR VGND _00119_ sg13g2_nor2b_1
X_07294_ \atbs_core_0.debouncer_0.debounced\ \atbs_core_0.n1078_q\ _00853_ VPWR VGND _01086_ sg13g2_mux2_1
X_07295_ _01048_ VPWR VGND _01087_ sg13g2_inv_1
X_07296_ _01087_ _01083_ VPWR VGND _01088_ sg13g2_nor2_1
X_07297_ _01080_ _01046_ _01050_ _01088_ VPWR VGND 
+ _01089_
+ sg13g2_nand4_1
X_07298_ \atbs_core_0.n1051_q\ \atbs_core_0.n37_o\ VPWR VGND _01090_ sg13g2_nand2b_1
X_07299_ _01086_ _01089_ _01090_ VPWR VGND _01091_ sg13g2_and3_1
X_07300_ _01091_ VPWR VGND _01092_ sg13g2_buf_1
X_07301_ _00849_ _00842_ VPWR VGND _01093_ sg13g2_nand2_1
X_07302_ _00843_ _01092_ _01093_ VPWR VGND _01094_ sg13g2_nor3_1
X_07303_ _01094_ VPWR VGND _01095_ sg13g2_buf_1
X_07304_ _01086_ _01095_ VPWR VGND _01096_ sg13g2_nand2_1
X_07305_ _00119_ _01096_ VPWR VGND _00122_ sg13g2_and2_1
X_07306_ \atbs_core_0.adaptive_ctrl_0.n1308_o\ VPWR VGND _01097_ sg13g2_buf_1
X_07307_ _00911_ VPWR VGND _01098_ sg13g2_inv_1
X_07308_ _01013_ _01098_ _01014_ VPWR VGND _01099_ sg13g2_nand3_1
X_07309_ _00926_ _00930_ _00935_ _01099_ VPWR VGND 
+ _01100_
+ sg13g2_nor4_1
X_07310_ _00908_ _01100_ VPWR VGND _01101_ sg13g2_nand2_1
X_07311_ \atbs_core_0.adaptive_ctrl_0.is_empty_interval\ _01097_ _01101_ VPWR VGND _01102_ sg13g2_nand3_1
X_07312_ _00862_ \atbs_core_0.adaptive_ctrl_0.delta_steps_strb\ _01102_ VPWR VGND _00125_ sg13g2_o21ai_1
X_07313_ _00052_ VPWR VGND _01103_ sg13g2_buf_1
X_07314_ _01103_ VPWR VGND _01104_ sg13g2_inv_1
X_07315_ _00949_ VPWR VGND _01105_ sg13g2_inv_1
X_07316_ _01105_ VPWR VGND _01106_ sg13g2_buf_1
X_07317_ _01106_ VPWR VGND _01107_ sg13g2_buf_1
X_07318_ _01104_ _01107_ VPWR VGND _01108_ sg13g2_nor2_1
X_07319_ _01097_ \atbs_core_0.adaptive_ctrl_0.is_empty_interval\ _01108_ VPWR VGND _00126_ sg13g2_mux2_1
X_07320_ \atbs_core_0.adaptive_ctrl_0.n1447_q[0]\ VPWR VGND _01109_ sg13g2_buf_1
X_07321_ _01109_ VPWR VGND _01110_ sg13g2_inv_1
X_07322_ \atbs_core_0.adaptive_ctrl_0.adaptive_strb\ _00905_ _00940_ VPWR VGND _01111_ sg13g2_nand3_1
X_07323_ _01003_ _01021_ _00904_ VPWR VGND _01112_ sg13g2_a21o_1
X_07324_ _00859_ _01112_ VPWR VGND _01113_ sg13g2_or2_1
X_07325_ _00029_ VPWR VGND _01114_ sg13g2_inv_1
X_07326_ _01111_ _01113_ _01114_ VPWR VGND _01115_ sg13g2_a21oi_1
X_07327_ _01115_ VPWR VGND _01116_ sg13g2_buf_1
X_07328_ \atbs_core_0.adaptive_ctrl_0.weyls_discrepancy_0.n2677_q[1]\ \atbs_core_0.adaptive_ctrl_0.weyls_discrepancy_0.n2677_q[0]\ \atbs_core_0.adaptive_ctrl_0.weyls_discrepancy_0.n2677_q[2]\ VPWR VGND _01117_ sg13g2_a21oi_1
X_07329_ _00997_ \atbs_core_0.adaptive_ctrl_0.max_delta_steps_i[6]\ _00032_ VPWR VGND _01118_ sg13g2_o21ai_1
X_07330_ _01013_ \atbs_core_0.adaptive_ctrl_0.max_delta_steps_i[4]\ VPWR VGND _01119_ sg13g2_nand2_1
X_07331_ _00912_ \atbs_core_0.adaptive_ctrl_0.max_delta_steps_i[2]\ VPWR VGND _01120_ sg13g2_nor2b_1
X_07332_ \atbs_core_0.adaptive_ctrl_0.max_delta_steps_i[3]\ _01120_ VPWR VGND _01121_ sg13g2_nand2_1
X_07333_ \atbs_core_0.adaptive_ctrl_0.max_delta_steps_i[3]\ _01120_ _01010_ VPWR VGND _01122_ sg13g2_o21ai_1
X_07334_ _01119_ _01121_ _01122_ VPWR VGND _01123_ sg13g2_nand3_1
X_07335_ _01013_ \atbs_core_0.adaptive_ctrl_0.max_delta_steps_i[4]\ _01123_ VPWR VGND _01124_ sg13g2_o21ai_1
X_07336_ \atbs_core_0.adaptive_ctrl_0.max_delta_steps_i[5]\ VPWR VGND _01125_ sg13g2_inv_1
X_07337_ _00935_ _01124_ _01125_ VPWR VGND _01126_ sg13g2_o21ai_1
X_07338_ _00935_ _01124_ VPWR VGND _01127_ sg13g2_nand2_1
X_07339_ _00997_ \atbs_core_0.adaptive_ctrl_0.max_delta_steps_i[6]\ _01126_ _01127_ VPWR VGND 
+ _01128_
+ sg13g2_a22oi_1
X_07340_ _01117_ _01118_ _01128_ VPWR VGND _01129_ sg13g2_nor3_1
X_07341_ \atbs_core_0.adaptive_ctrl_0.weyls_discrepancy_0.n2677_q[1]\ \atbs_core_0.adaptive_ctrl_0.weyls_discrepancy_0.n2677_q[2]\ _01100_ VPWR VGND _01130_ sg13g2_nor3_1
X_07342_ \atbs_core_0.adaptive_ctrl_0.n1352_o\ VPWR VGND _01131_ sg13g2_buf_1
X_07343_ _01129_ _01130_ _01131_ VPWR VGND _01132_ sg13g2_o21ai_1
X_07344_ _01132_ VPWR VGND _01133_ sg13g2_buf_1
X_07345_ _01129_ VPWR VGND _01134_ sg13g2_inv_1
X_07346_ _00911_ _01134_ _01133_ VPWR VGND _01135_ sg13g2_a21oi_1
X_07347_ _00090_ _01133_ _01135_ VPWR VGND _01136_ sg13g2_a21oi_1
X_07348_ _01095_ _01116_ _01136_ VPWR VGND _01137_ sg13g2_nor3_1