* XSpice netlist created from SPICE and liberty sources by spi2xspice.py
*SPICE netlist created from verilog structural netlist module atbs_core_floating_window_board by vlog2Spice (qflow)
.subckt atbs_core_floating_window_board a_VPWR a_VGND a_adaptive_mode_i a_clock_i a_comp_lower_i a_comp_upper_i a_control_mode_i a_dac_lower_o_0_ a_dac_lower_o_1_ a_dac_lower_o_2_ a_dac_lower_o_3_ a_dac_lower_o_4_ a_dac_lower_o_5_ a_dac_lower_o_6_ a_dac_lower_o_7_ a_dac_upper_o_0_ a_dac_upper_o_1_ a_dac_upper_o_2_ a_dac_upper_o_3_ a_dac_upper_o_4_ a_dac_upper_o_5_ a_dac_upper_o_6_ a_dac_upper_o_7_ a_enable_i a_idle_led_o a_overflow_led_o a_reset_n_i a_select_tbs_delta_steps_i a_signal_select_in_i a_trigger_start_mode_i a_trigger_start_sampling_i a_uart_rx_i a_uart_tx_o a_underflow_led_o
A_06941_ [\atbs_core_0.uart_0.uart_rx_0.n2848_o\] _00748_ d_lut_sg13g2_buf_1
A_06942_ [_00748_] _00749_ d_lut_sg13g2_inv_1
A_06943_ [\atbs_core_0.baudrate_adj_uart_2_\] _00750_ d_lut_sg13g2_buf_1
A_06944_ [_00750_] _00751_ d_lut_sg13g2_inv_1
A_06945_ [\atbs_core_0.uart_0.uart_rx_0.baud_counter_value_2_\] _00752_ d_lut_sg13g2_buf_1
A_06946_ [\atbs_core_0.baudrate_adj_uart_5_\] _00753_ d_lut_sg13g2_buf_1
A_06947_ [_00753_] _00754_ d_lut_sg13g2_buf_1
A_06948_ [\atbs_core_0.uart_0.uart_rx_0.baud_counter_value_5_\] _00755_ d_lut_sg13g2_buf_1
A_06949_ [_00754_ _00755_ \atbs_core_0.uart_0.uart_rx_0.baud_counter_value_8_\] _00756_ d_lut_sg13g2_nand3_1
A_06950_ [_00753_ _00755_ \atbs_core_0.uart_0.uart_rx_0.baud_counter_value_8_\] _00757_ d_lut_sg13g2_or3_1
A_06951_ [\atbs_core_0.baudrate_adj_uart_6_\] _00758_ d_lut_sg13g2_buf_1
A_06952_ [\atbs_core_0.uart_0.uart_rx_0.baud_counter_value_6_\] _00759_ d_lut_sg13g2_buf_1
A_06953_ [_00758_ _00759_] _00760_ d_lut_sg13g2_xor2_1
A_06954_ [_00751_ _00752_ _00756_ _00757_ _00760_] _00761_ d_lut_sg13g2_a221oi_1
A_06955_ [\atbs_core_0.baudrate_adj_uart_4_\] _00762_ d_lut_sg13g2_buf_1
A_06956_ [\atbs_core_0.uart_0.uart_rx_0.baud_counter_value_4_\] _00763_ d_lut_sg13g2_buf_1
A_06957_ [_00762_ _00763_] _00764_ d_lut_sg13g2_nand2b_1
A_06958_ [_00763_ _00762_] _00765_ d_lut_sg13g2_nand2b_1
A_06959_ [_00752_] _00766_ d_lut_sg13g2_inv_1
A_06960_ [\atbs_core_0.baudrate_adj_uart_1_\] _00767_ d_lut_sg13g2_buf_1
A_06961_ [_00767_ \atbs_core_0.uart_0.uart_rx_0.baud_counter_value_3_\] _00768_ d_lut_sg13g2_xor2_1
A_06962_ [_00750_ _00766_ _00768_] _00769_ d_lut_sg13g2_a21oi_1
A_06963_ [_00764_ _00765_ _00769_] _00770_ d_lut_sg13g2_and3_1
A_06964_ [\atbs_core_0.uart_0.uart_rx_0.baud_counter_value_1_\] _00771_ d_lut_sg13g2_buf_1
A_06965_ [_00767_ _00771_] _00772_ d_lut_sg13g2_xor2_1
A_06966_ [\atbs_core_0.uart_0.uart_rx_0.baud_counter_value_0_\] _00773_ d_lut_sg13g2_buf_1
A_06967_ [\atbs_core_0.baudrate_adj_uart_0_\] _00774_ d_lut_sg13g2_buf_1
A_06968_ [_00773_ _00774_] _00775_ d_lut_sg13g2_xor2_1
A_06969_ [\atbs_core_0.baudrate_adj_uart_7_\] _00776_ d_lut_sg13g2_buf_1
A_06970_ [\atbs_core_0.uart_0.uart_rx_0.baud_counter_value_7_\] _00777_ d_lut_sg13g2_buf_1
A_06971_ [_00777_] _00778_ d_lut_sg13g2_inv_1
A_06972_ [_00776_ _00778_] _00779_ d_lut_sg13g2_nor2_1
A_06973_ [_00776_] _00780_ d_lut_sg13g2_inv_1
A_06974_ [_00780_ _00777_] _00781_ d_lut_sg13g2_nor2_1
A_06975_ [_00772_ _00775_ _00779_ _00781_] _00782_ d_lut_sg13g2_nor4_1
A_06976_ [_00761_ _00770_ _00782_] _00783_ d_lut_sg13g2_nand3_1
A_06977_ [_00783_] _00784_ d_lut_sg13g2_buf_1
A_06978_ [\atbs_core_0.uart_0.uart_rx_0.n2891_o\] _00785_ d_lut_sg13g2_buf_1
A_06979_ [\atbs_core_0.uart_0.uart_rx_0.n2889_o\] _00786_ d_lut_sg13g2_buf_1
A_06980_ [\atbs_core_0.uart_0.uart_rx_0.n2897_o\] _00787_ d_lut_sg13g2_buf_1
A_06981_ [_00785_ _00786_ _00787_] _00788_ d_lut_sg13g2_nand3_1
A_06982_ [\atbs_core_0.uart_0.uart_rx_0.n2819_o\] _00789_ d_lut_sg13g2_buf_1
A_06983_ [_00784_ _00788_ _00789_] _00790_ d_lut_sg13g2_o21ai_1
A_06984_ [_00749_ _00784_ _00790_] _00000_ d_lut_sg13g2_o21ai_1
A_06985_ [\atbs_core_0.uart_0.uart_tx_0.n2735_o\] _00791_ d_lut_sg13g2_buf_1
A_06986_ [_00791_] _00792_ d_lut_sg13g2_inv_1
A_06987_ [\atbs_core_0.uart_0.uart_tx_0.baud_counter_value_7_\] _00793_ d_lut_sg13g2_buf_1
A_06988_ [_00776_ _00793_] _00794_ d_lut_sg13g2_xnor2_1
A_06989_ [\atbs_core_0.uart_0.uart_tx_0.baud_counter_value_4_\] _00795_ d_lut_sg13g2_buf_1
A_06990_ [_00762_ _00795_] _00796_ d_lut_sg13g2_xnor2_1
A_06991_ [\atbs_core_0.uart_0.uart_tx_0.baud_counter_value_5_\] _00797_ d_lut_sg13g2_buf_1
A_06992_ [\atbs_core_0.uart_0.uart_tx_0.baud_counter_value_8_\] _00798_ d_lut_sg13g2_buf_1
A_06993_ [_00754_ _00797_ _00798_] _00799_ d_lut_sg13g2_nand3_1
A_06994_ [_00753_ _00797_ _00798_] _00800_ d_lut_sg13g2_or3_1
A_06995_ [\atbs_core_0.uart_0.uart_tx_0.baud_counter_value_1_\] _00801_ d_lut_sg13g2_buf_1
A_06996_ [\atbs_core_0.uart_0.uart_tx_0.baud_counter_value_3_\] _00802_ d_lut_sg13g2_buf_1
A_06997_ [_00767_ _00801_ _00802_] _00803_ d_lut_sg13g2_or3_1
A_06998_ [_00767_ _00801_ _00802_] _00804_ d_lut_sg13g2_nand3_1
A_06999_ [\atbs_core_0.uart_0.uart_tx_0.baud_counter_value_2_\] _00805_ d_lut_sg13g2_buf_1
A_07000_ [_00751_ _00805_] _00806_ d_lut_sg13g2_nand2_1
A_07001_ [_00805_ _00750_] _00807_ d_lut_sg13g2_nand2b_1
A_07002_ [_00758_ \atbs_core_0.uart_0.uart_tx_0.baud_counter_value_6_\] _00808_ d_lut_sg13g2_xnor2_1
A_07003_ [\atbs_core_0.uart_0.uart_tx_0.baud_counter_value_0_\] _00809_ d_lut_sg13g2_buf_1
A_07004_ [_00774_ _00809_] _00810_ d_lut_sg13g2_xnor2_1
A_07005_ [_00806_ _00807_ _00808_ _00810_] _00811_ d_lut_sg13g2_nand4_1
A_07006_ [_00799_ _00800_ _00803_ _00804_ _00811_] _00812_ d_lut_sg13g2_a221oi_1
A_07007_ [_00794_ _00796_ _00812_] _00813_ d_lut_sg13g2_nand3_1
A_07008_ [_00813_] _00814_ d_lut_sg13g2_buf_1
A_07009_ [_00814_] _00815_ d_lut_sg13g2_buf_1
A_07010_ [\atbs_core_0.uart_0.uart_tx_0.n2730_o\] _00816_ d_lut_sg13g2_buf_1
A_07011_ [\atbs_core_0.uart_0.uart_tx_0.n2758_o\] _00817_ d_lut_sg13g2_inv_1
A_07012_ [\atbs_core_0.uart_0.uart_tx_0.n2721_o\] _00818_ d_lut_sg13g2_inv_1
A_07013_ [\atbs_core_0.memory2uart_0.n2040_q\] _00819_ d_lut_sg13g2_inv_1
A_07014_ [_00817_ _00818_ _00819_] _00820_ d_lut_sg13g2_a21oi_1
A_07015_ [_00816_ _00815_ _00820_] _00821_ d_lut_sg13g2_nor3_1
A_07016_ [_00792_ _00815_ _00821_] _00003_ d_lut_sg13g2_a21oi_1
A_07017_ [_00028_] _00822_ d_lut_sg13g2_inv_1
A_07018_ [\atbs_core_0.dac_control_0.n1586_q\] _00823_ d_lut_sg13g2_buf_1
A_07019_ [_00823_] _00824_ d_lut_sg13g2_inv_1
A_07020_ [\atbs_core_0.main_counter_value_5_\] _00825_ d_lut_sg13g2_buf_1
A_07021_ [\atbs_core_0.main_counter_value_2_\ _00825_ \atbs_core_0.main_counter_value_7_\ \atbs_core_0.main_counter_value_6_\] _00826_ d_lut_sg13g2_nor4_1
A_07022_ [\atbs_core_0.main_counter_value_9_\] _00827_ d_lut_sg13g2_buf_1
A_07023_ [\atbs_core_0.main_counter_value_8_\] _00828_ d_lut_sg13g2_buf_1
A_07024_ [\atbs_core_0.main_counter_value_17_\] _00829_ d_lut_sg13g2_buf_1
A_07025_ [\atbs_core_0.main_counter_value_16_\] _00830_ d_lut_sg13g2_buf_1
A_07026_ [\atbs_core_0.main_counter_value_15_\ \atbs_core_0.main_counter_value_14_\ _00829_ _00830_] _00831_ d_lut_sg13g2_or4_1
A_07027_ [_00827_ _00828_ \atbs_core_0.main_counter_value_11_\ _00831_] _00832_ d_lut_sg13g2_nor4_1
A_07028_ [\atbs_core_0.main_counter_value_18_\] _00833_ d_lut_sg13g2_buf_1
A_07029_ [_00833_ \atbs_core_0.main_counter_value_19_\] _00834_ d_lut_sg13g2_nor2_1
A_07030_ [\atbs_core_0.main_counter_value_0_\] _00835_ d_lut_sg13g2_buf_1
A_07031_ [\atbs_core_0.main_counter_value_10_\] _00836_ d_lut_sg13g2_buf_1
A_07032_ [\atbs_core_0.main_counter_value_13_\] _00837_ d_lut_sg13g2_buf_1
A_07033_ [\atbs_core_0.main_counter_value_12_\] _00838_ d_lut_sg13g2_buf_1
A_07034_ [_00835_ _00836_ _00837_ _00838_] _00839_ d_lut_sg13g2_nor4_1
A_07035_ [_00826_ _00832_ _00834_ _00839_] _00840_ d_lut_sg13g2_and4_1
A_07036_ [_00840_] _00841_ d_lut_sg13g2_buf_1
A_07037_ [\atbs_core_0.n1074_q_2_\] _00842_ d_lut_sg13g2_buf_1
A_07038_ [\atbs_core_0.n1074_q_0_\] _00843_ d_lut_sg13g2_buf_1
A_07039_ [_00843_] _00844_ d_lut_sg13g2_inv_1
A_07040_ [_00844_ _00027_] _00845_ d_lut_sg13g2_nand2_1
A_07041_ [\atbs_core_0.main_counter_value_1_\] _00846_ d_lut_sg13g2_buf_1
A_07042_ [\atbs_core_0.main_counter_value_3_\] _00847_ d_lut_sg13g2_inv_1
A_07043_ [\atbs_core_0.main_counter_value_4_\] _00848_ d_lut_sg13g2_buf_1
A_07044_ [\atbs_core_0.n1074_q_1_\] _00849_ d_lut_sg13g2_buf_1
A_07045_ [_00846_ _00847_ _00848_ _00849_] _00850_ d_lut_sg13g2_nand4_1
A_07046_ [_00842_ _00845_ _00850_] _00851_ d_lut_sg13g2_nor3_1
A_07047_ [_00841_ _00851_] _00852_ d_lut_sg13g2_nand2_1
A_07048_ [\atbs_core_0.control_mode_debounced\] _00853_ d_lut_sg13g2_buf_16
A_07049_ [_00853_ _00008_] _00854_ d_lut_sg13g2_nor2b_1
A_07050_ [_00009_ _00853_ _00854_] _00855_ d_lut_sg13g2_a21oi_2
A_07051_ [_00855_] _00856_ d_lut_sg13g2_buf_1
A_07052_ [_00856_] _00857_ d_lut_sg13g2_buf_1
A_07053_ [_00857_] _00858_ d_lut_sg13g2_buf_1
A_07054_ [_00024_] _00859_ d_lut_sg13g2_buf_1
A_07055_ [\atbs_core_0.adaptive_ctrl_0.adapt_on_overflow\] _00860_ d_lut_sg13g2_buf_2
A_07056_ [_00860_] _00861_ d_lut_sg13g2_inv_1
A_07057_ [_00861_] _00862_ d_lut_sg13g2_buf_1
A_07058_ [_00025_] _00863_ d_lut_sg13g2_inv_1
A_07059_ [\atbs_core_0.spike_detector_0.lock_detection\ \atbs_core_0.detection_en\] _00864_ d_lut_sg13g2_nand2b_1
A_07060_ [_00008_ _00009_ _00853_] _00865_ d_lut_sg13g2_mux2_1
A_07061_ [_00865_] _00866_ d_lut_sg13g2_buf_4
A_07062_ [\atbs_core_0.n1054_q\ _00866_] _00867_ d_lut_sg13g2_nor2b_2
A_07063_ [\atbs_core_0.adaptive_ctrl_0.n1373_o_5_\] _00868_ d_lut_sg13g2_buf_1
A_07064_ [\atbs_core_0.adaptive_ctrl_0.n1373_o_4_\] _00869_ d_lut_sg13g2_buf_2
A_07065_ [_00868_ _00869_] _00870_ d_lut_sg13g2_or2_1
A_07066_ [\atbs_core_0.adaptive_ctrl_0.n1373_o_1_\] _00871_ d_lut_sg13g2_buf_4
A_07067_ [\atbs_core_0.adaptive_ctrl_0.n1373_o_0_\] _00872_ d_lut_sg13g2_buf_2
A_07068_ [\atbs_core_0.adaptive_ctrl_0.n1373_o_6_\] _00873_ d_lut_sg13g2_buf_2
A_07069_ [\atbs_core_0.adaptive_ctrl_0.n1449_q_8_\] _00874_ d_lut_sg13g2_buf_2
A_07070_ [_00871_ _00872_ _00873_ _00874_] _00875_ d_lut_sg13g2_or4_1
A_07071_ [\atbs_core_0.adaptive_ctrl_0.n1373_o_3_\] _00876_ d_lut_sg13g2_buf_2
A_07072_ [\atbs_core_0.adaptive_ctrl_0.n1373_o_2_\] _00877_ d_lut_sg13g2_buf_1
A_07073_ [\atbs_core_0.adaptive_ctrl_0.n1373_o_7_\] _00878_ d_lut_sg13g2_buf_2
A_07074_ [_00876_ _00877_ _00878_] _00879_ d_lut_sg13g2_or3_1
A_07075_ [_00866_ _00870_ _00875_ _00879_] _00880_ d_lut_sg13g2_nor4_2
A_07076_ [\atbs_core_0.comp_lower_sync\ _00864_ _00867_ _00880_] _00881_ d_lut_sg13g2_or4_1
A_07077_ [_00881_] _00882_ d_lut_sg13g2_buf_8
A_07078_ [_00866_] _00883_ d_lut_sg13g2_buf_16
A_07079_ [\atbs_core_0.adaptive_ctrl_0.n1368_o_7_\] _00884_ d_lut_sg13g2_buf_1
A_07080_ [\atbs_core_0.adaptive_ctrl_0.n1448_q_8_\] _00885_ d_lut_sg13g2_buf_1
A_07081_ [_00884_ _00885_] _00886_ d_lut_sg13g2_or2_1
A_07082_ [\atbs_core_0.adaptive_ctrl_0.n1368_o_1_\] _00887_ d_lut_sg13g2_buf_1
A_07083_ [\atbs_core_0.adaptive_ctrl_0.n1368_o_5_\] _00888_ d_lut_sg13g2_buf_1
A_07084_ [\atbs_core_0.adaptive_ctrl_0.n1368_o_4_\] _00889_ d_lut_sg13g2_buf_1
A_07085_ [\atbs_core_0.adaptive_ctrl_0.n1368_o_6_\] _00890_ d_lut_sg13g2_buf_2
A_07086_ [_00887_ _00888_ _00889_ _00890_] _00891_ d_lut_sg13g2_or4_1
A_07087_ [\atbs_core_0.adaptive_ctrl_0.n1368_o_0_\] _00892_ d_lut_sg13g2_buf_2
A_07088_ [\atbs_core_0.adaptive_ctrl_0.n1368_o_3_\] _00893_ d_lut_sg13g2_buf_2
A_07089_ [\atbs_core_0.adaptive_ctrl_0.n1368_o_2_\] _00894_ d_lut_sg13g2_buf_1
A_07090_ [_00892_ _00893_ _00894_] _00895_ d_lut_sg13g2_or3_1
A_07091_ [_00883_ _00886_ _00891_ _00895_] _00896_ d_lut_sg13g2_nor4_2
A_07092_ [_00896_] _00897_ d_lut_sg13g2_buf_8
A_07093_ [\atbs_core_0.n1053_q\] _00898_ d_lut_sg13g2_inv_1
A_07094_ [\atbs_core_0.spike_detector_0.lock_detection\ \atbs_core_0.detection_en\ \atbs_core_0.comp_upper_sync\] _00899_ d_lut_sg13g2_nand3b_1
A_07095_ [_00898_ _00883_ _00899_] _00900_ d_lut_sg13g2_a21o_1
A_07096_ [_00900_] _00901_ d_lut_sg13g2_buf_4
A_07097_ [_00897_ _00901_] _00902_ d_lut_sg13g2_nor2_2
A_07098_ [_00863_ _00882_ _00902_] _00903_ d_lut_sg13g2_a21oi_2
A_07099_ [_00903_] _00904_ d_lut_sg13g2_buf_8
A_07100_ [_00904_] _00905_ d_lut_sg13g2_buf_8
A_07101_ [_00862_ _00905_] _00906_ d_lut_sg13g2_nand2_1
A_07102_ [_00871_] _00907_ d_lut_sg13g2_inv_1
A_07103_ [\atbs_core_0.adaptive_ctrl_0.delta_steps_0_\] _00908_ d_lut_sg13g2_buf_2
A_07104_ [_00872_] _00909_ d_lut_sg13g2_inv_1
A_07105_ [_00907_ \atbs_core_0.adaptive_ctrl_0.delta_steps_1_\ _00908_ _00909_] _00910_ d_lut_sg13g2_a22oi_1
A_07106_ [\atbs_core_0.adaptive_ctrl_0.delta_steps_1_\] _00911_ d_lut_sg13g2_buf_2
A_07107_ [\atbs_core_0.adaptive_ctrl_0.delta_steps_2_\] _00912_ d_lut_sg13g2_buf_2
A_07108_ [_00912_ _00877_] _00913_ d_lut_sg13g2_nand2b_1
A_07109_ [_00907_ _00911_ _00913_] _00914_ d_lut_sg13g2_o21ai_1
A_07110_ [\atbs_core_0.adaptive_ctrl_0.delta_steps_3_\] _00915_ d_lut_sg13g2_buf_2
A_07111_ [_00876_ _00915_] _00916_ d_lut_sg13g2_xor2_1
A_07112_ [_00877_ \atbs_core_0.adaptive_ctrl_0.delta_steps_2_\] _00917_ d_lut_sg13g2_nor2b_1
A_07113_ [\atbs_core_0.adaptive_ctrl_0.delta_steps_4_\] _00918_ d_lut_sg13g2_buf_4
A_07114_ [_00869_ _00918_] _00919_ d_lut_sg13g2_nor2b_1
A_07115_ [_00918_ _00869_] _00920_ d_lut_sg13g2_nor2b_1
A_07116_ [_00916_ _00917_ _00919_ _00920_] _00921_ d_lut_sg13g2_nor4_1
A_07117_ [_00910_ _00914_ _00921_] _00922_ d_lut_sg13g2_o21ai_1
A_07118_ [_00876_] _00923_ d_lut_sg13g2_inv_1
A_07119_ [_00923_ _00915_ _00919_] _00924_ d_lut_sg13g2_nor3_1
A_07120_ [_00878_] _00925_ d_lut_sg13g2_inv_2
A_07121_ [\atbs_core_0.adaptive_ctrl_0.delta_steps_7_\] _00926_ d_lut_sg13g2_buf_2
A_07122_ [_00874_] _00927_ d_lut_sg13g2_inv_1
A_07123_ [_00925_ _00926_ _00927_] _00928_ d_lut_sg13g2_o21ai_1
A_07124_ [\atbs_core_0.adaptive_ctrl_0.delta_steps_5_\ _00868_] _00929_ d_lut_sg13g2_nand2b_1
A_07125_ [\atbs_core_0.adaptive_ctrl_0.delta_steps_6_\] _00930_ d_lut_sg13g2_buf_4
A_07126_ [_00930_ _00873_] _00931_ d_lut_sg13g2_nand2b_1
A_07127_ [_00873_ _00930_] _00932_ d_lut_sg13g2_nor2b_1
A_07128_ [_00929_ _00931_ _00932_] _00933_ d_lut_sg13g2_a21oi_1
A_07129_ [_00920_ _00924_ _00928_ _00933_] _00934_ d_lut_sg13g2_nor4_2
A_07130_ [\atbs_core_0.adaptive_ctrl_0.delta_steps_5_\] _00935_ d_lut_sg13g2_buf_4
A_07131_ [_00868_ _00935_] _00936_ d_lut_sg13g2_nor2b_1
A_07132_ [_00925_ _00926_ _00931_ _00936_ _00932_] _00937_ d_lut_sg13g2_a221oi_1
A_07133_ [_00928_ _00937_] _00938_ d_lut_sg13g2_nor2_1
A_07134_ [_00922_ _00934_ _00938_] _00939_ d_lut_sg13g2_a21o_1
A_07135_ [_00939_] _00940_ d_lut_sg13g2_buf_2
A_07136_ [_00859_ _00023_ _00906_ _00940_] _00941_ d_lut_sg13g2_or4_1
A_07137_ [\atbs_core_0.adaptive_ctrl_0.delta_steps_strb\ _00941_] _00942_ d_lut_sg13g2_and2_1
A_07138_ [_00942_] _00943_ d_lut_sg13g2_buf_2
A_07139_ [_00883_] _00944_ d_lut_sg13g2_buf_1
A_07140_ [_00898_ _00944_ _00897_] _00945_ d_lut_sg13g2_a21oi_1
A_07141_ [\atbs_core_0.comp_lower_sync\ _00867_ _00880_] _00946_ d_lut_sg13g2_nor3_1
A_07142_ [\atbs_core_0.comp_upper_sync\ _00945_ _00946_] _00947_ d_lut_sg13g2_a21oi_1
A_07143_ [_00864_ _00947_] _00948_ d_lut_sg13g2_or2_1
A_07144_ [_00948_] _00949_ d_lut_sg13g2_buf_1
A_07145_ [_00858_ _00949_] _00950_ d_lut_sg13g2_nor2_1
A_07146_ [_00858_ _00943_ _00950_] _00951_ d_lut_sg13g2_a21oi_1
A_07147_ [_00822_ _00824_ _00852_ _00951_] _00952_ d_lut_sg13g2_a22oi_1
A_07148_ [_00952_] \atbs_core_0.dac_control_0.dac_counter_strb\ d_lut_sg13g2_buf_1
A_07149_ [_00784_] _00953_ d_lut_sg13g2_inv_1
A_07150_ [_00787_ _00953_] _00954_ d_lut_sg13g2_nand2_1
A_07151_ [_00789_ _00785_ _00786_] _00955_ d_lut_sg13g2_nand3_1
A_07152_ [\atbs_core_0.uart_0.uart_rx_0.n2873_o\] _00956_ d_lut_sg13g2_buf_1
A_07153_ [_00753_ _00777_] _00957_ d_lut_sg13g2_or2_1
A_07154_ [_00763_ _00753_ _00777_] _00958_ d_lut_sg13g2_nand3_1
A_07155_ [_00763_ _00957_ _00958_] _00959_ d_lut_sg13g2_o21ai_1
A_07156_ [_00759_ _00776_] _00960_ d_lut_sg13g2_xnor2_1
A_07157_ [_00006_ _00959_ _00960_] _00961_ d_lut_sg13g2_nand3_1
A_07158_ [_00773_ _00752_] _00962_ d_lut_sg13g2_or2_1
A_07159_ [_00767_ _00773_ _00752_] _00963_ d_lut_sg13g2_nand3_1
A_07160_ [_00767_ _00962_ _00963_] _00964_ d_lut_sg13g2_o21ai_1
A_07161_ [_00771_ _00750_] _00965_ d_lut_sg13g2_xor2_1
A_07162_ [\atbs_core_0.uart_0.uart_rx_0.baud_counter_value_3_\ _00762_] _00966_ d_lut_sg13g2_xor2_1
A_07163_ [_00755_ _00758_] _00967_ d_lut_sg13g2_xor2_1
A_07164_ [_00965_ _00966_ _00967_] _00968_ d_lut_sg13g2_nor3_1
A_07165_ [_00961_ _00964_ _00968_] _00969_ d_lut_sg13g2_nand3b_1
A_07166_ [_00956_ _00969_] _00970_ d_lut_sg13g2_nand2_1
A_07167_ [_00954_ _00955_ _00970_] _00002_ d_lut_sg13g2_o21ai_1
A_07168_ [\atbs_core_0.uart_0.uart_rx_0.n2834_o\] _00971_ d_lut_sg13g2_buf_1
A_07169_ [uart_rx_i] _00972_ d_lut_sg13g2_inv_1
A_07170_ [_00971_ _00972_ _00784_ _00748_] _00973_ d_lut_sg13g2_a22oi_1
A_07171_ [_00973_] _00001_ d_lut_sg13g2_inv_1
A_07172_ [\atbs_core_0.uart_0.uart_tx_0.n2780_q_1_\] _00974_ d_lut_sg13g2_buf_1
A_07173_ [\atbs_core_0.uart_0.uart_tx_0.n2780_q_0_\] _00975_ d_lut_sg13g2_buf_1
A_07174_ [\atbs_core_0.uart_0.uart_tx_0.n2780_q_2_\] _00976_ d_lut_sg13g2_buf_1
A_07175_ [_00974_ _00975_ _00976_] _00977_ d_lut_sg13g2_nand3_1
A_07176_ [\atbs_core_0.uart_0.uart_tx_0.n2699_o\] _00978_ d_lut_sg13g2_buf_1
A_07177_ [_00815_ _00977_ _00978_] _00979_ d_lut_sg13g2_o21ai_1
A_07178_ [_00792_ _00815_ _00979_] _00005_ d_lut_sg13g2_o21ai_1
A_07179_ [_00818_ _00031_] _00980_ d_lut_sg13g2_nor2_1
A_07180_ [_00816_ _00980_ _00815_] _00981_ d_lut_sg13g2_o21ai_1
A_07181_ [_00981_] _00004_ d_lut_sg13g2_inv_1
A_07182_ [\atbs_core_0.enable_read\] _00982_ d_lut_sg13g2_inv_1
A_07183_ [\atbs_core_0.spike_memory_0.head_1_\ \atbs_core_0.spike_memory_0.n1973_q_1_\] _00983_ d_lut_sg13g2_xor2_1
A_07184_ [_00983_] _00984_ d_lut_sg13g2_buf_1
A_07185_ [\atbs_core_0.spike_memory_0.n1973_q_0_\] _00985_ d_lut_sg13g2_buf_1
A_07186_ [\atbs_core_0.spike_memory_0.head_0_\] _00986_ d_lut_sg13g2_buf_1
A_07187_ [_00985_ _00986_] _00987_ d_lut_sg13g2_nor2b_1
A_07188_ [_00986_ _00985_] _00988_ d_lut_sg13g2_nor2b_1
A_07189_ [_00984_ _00987_ _00988_] _00989_ d_lut_sg13g2_nor3_1
A_07190_ [_00982_ \atbs_core_0.spike_memory_0.n1912_o\ _00989_] _00990_ d_lut_sg13g2_nor3_1
A_07191_ [_00990_] \atbs_core_0.spike_memory_0.n1914_o\ d_lut_sg13g2_buf_1
A_07192_ [\atbs_core_0.spike_detector_0.n1258_q\ \atbs_core_0.spike_detector_0.lower_is_changing\] _00991_ d_lut_sg13g2_nor2_1
A_07193_ [_00991_] \atbs_core_0.spike_detector_0.n1246_o\ d_lut_sg13g2_inv_1
A_07194_ [_00904_] _00992_ d_lut_sg13g2_inv_16
A_07195_ [_00935_] _00993_ d_lut_sg13g2_inv_1
A_07196_ [_00930_ _00890_] _00994_ d_lut_sg13g2_nor2b_1
A_07197_ [_00889_ _00918_] _00995_ d_lut_sg13g2_nand2b_1
A_07198_ [_00993_ _00994_ _00995_] _00996_ d_lut_sg13g2_nor3_1
A_07199_ [_00930_] _00997_ d_lut_sg13g2_inv_1
A_07200_ [_00890_ _00997_ _00993_ _00995_ _00888_] _00998_ d_lut_sg13g2_a221oi_1
A_07201_ [_00890_ _00997_ _00026_] _00999_ d_lut_sg13g2_o21ai_1
A_07202_ [_00996_ _00998_ _00999_] _01000_ d_lut_sg13g2_or3_1
A_07203_ [_00884_ _00885_] _01001_ d_lut_sg13g2_nor2_1
A_07204_ [_00926_ _01000_ _01001_] _01002_ d_lut_sg13g2_o21ai_1
A_07205_ [_01002_] _01003_ d_lut_sg13g2_buf_2
A_07206_ [_00892_ _00908_] _01004_ d_lut_sg13g2_nor2b_1
A_07207_ [_00911_ _01004_] _01005_ d_lut_sg13g2_nor2_1
A_07208_ [_00893_] _01006_ d_lut_sg13g2_inv_1
A_07209_ [_00894_ _00912_] _01007_ d_lut_sg13g2_nor2b_1
A_07210_ [_01006_ _00915_ _00911_ _01004_ _01007_] _01008_ d_lut_sg13g2_a221oi_1
A_07211_ [_00887_ _01005_ _01008_] _01009_ d_lut_sg13g2_o21ai_1
A_07212_ [_00915_] _01010_ d_lut_sg13g2_inv_1
A_07213_ [_00912_ _00894_] _01011_ d_lut_sg13g2_nor2b_1
A_07214_ [_01010_ _01011_ _00893_] _01012_ d_lut_sg13g2_o21ai_1
A_07215_ [_00918_] _01013_ d_lut_sg13g2_inv_1
A_07216_ [_00915_ _00912_] _01014_ d_lut_sg13g2_nor2_1
A_07217_ [_00889_ _01013_ _01014_ _00894_ _00885_] _01015_ d_lut_sg13g2_a221oi_1
A_07218_ [_00926_] _01016_ d_lut_sg13g2_inv_1
A_07219_ [_00884_ _01016_ _00993_ _00888_ _00994_] _01017_ d_lut_sg13g2_a221oi_1
A_07220_ [_01012_ _01015_ _01017_] _01018_ d_lut_sg13g2_and3_1
A_07221_ [_00885_ _00926_] _01019_ d_lut_sg13g2_nor2b_1
A_07222_ [_01009_ _01018_ _01000_ _01019_] _01020_ d_lut_sg13g2_a22oi_1
A_07223_ [_01020_] _01021_ d_lut_sg13g2_buf_4
A_07224_ [_00992_ _01003_ _01021_] _01022_ d_lut_sg13g2_and3_2
A_07225_ [_01022_] _01023_ d_lut_sg13g2_buf_8
A_07226_ [_00860_ _01023_] _01024_ d_lut_sg13g2_nor2_1
A_07227_ [_00992_] \atbs_core_0.adaptive_ctrl_0.spike_i\ d_lut_sg13g2_buf_8
A_07228_ [_00029_ \atbs_core_0.adaptive_ctrl_0.spike_i\] _01025_ d_lut_sg13g2_nand2_1
A_07229_ [_01025_] _01026_ d_lut_sg13g2_buf_2
A_07230_ [_00859_ _00023_ _01024_ _01026_] _01027_ d_lut_sg13g2_nor4_1
A_07231_ [_01027_ \atbs_core_0.adaptive_ctrl_0.delta_steps_strb\] _01028_ d_lut_sg13g2_nand2b_1
A_07232_ [_01028_] _01029_ d_lut_sg13g2_buf_1
A_07233_ [_01029_] _01030_ d_lut_sg13g2_inv_1
A_07234_ [_00858_ _01030_ _00950_] _01031_ d_lut_sg13g2_a21oi_1
A_07235_ [_00852_ _01031_] _01032_ d_lut_sg13g2_nand2_1
A_07236_ [_00853_ \atbs_core_0.debouncer_4.debounced\] _01033_ d_lut_sg13g2_nor2b_1
A_07237_ [_00853_ \atbs_core_0.enable_analog_uart\ _01033_] _01034_ d_lut_sg13g2_a21o_1
A_07238_ [_01034_] _01035_ d_lut_sg13g2_buf_1
A_07239_ [_01032_ _01035_ \atbs_core_0.dac_control_1.n1629_o\] \atbs_core_0.dac_control_1.n1632_o\ d_lut_sg13g2_mux2_1
A_07240_ [\atbs_core_0.dac_control_1.n1721_q\] _01036_ d_lut_sg13g2_buf_4
A_07241_ [_01036_] _01037_ d_lut_sg13g2_inv_1
A_07242_ [_00852_ _01031_] _01038_ d_lut_sg13g2_and2_1
A_07243_ [_01038_] _01039_ d_lut_sg13g2_buf_1
A_07244_ [\atbs_core_0.dac_control_1.n1629_o\ _01037_ _01039_] \atbs_core_0.dac_control_1.dac_counter_strb\ d_lut_sg13g2_a21oi_1
A_07245_ [_00978_] _01040_ d_lut_sg13g2_inv_1
A_07246_ [_01040_ _00977_] _01041_ d_lut_sg13g2_nor2_1
A_07247_ [_01041_ \atbs_core_0.uart_0.uart_tx_0.n2758_o\ _00815_] \atbs_core_0.uart_0.uart_tx_0.n2766_o_2_\ d_lut_sg13g2_mux2_1
A_07248_ [\atbs_core_0.uart_0.rx_data_strb_o\] _01042_ d_lut_sg13g2_inv_1
A_07249_ [_01042_ \atbs_core_0.n1061_q\ \atbs_core_0.analog_trigger_uart\] _01043_ d_lut_sg13g2_nor3_1
A_07250_ [\atbs_core_0.uart_0.uart_rx_0.n2915_o\] _01044_ d_lut_sg13g2_inv_1
A_07251_ [\atbs_core_0.uart_0.uart_rx_0.n2921_o\ \atbs_core_0.uart_0.uart_rx_0.n2919_o\] _01045_ d_lut_sg13g2_nand2b_1
A_07252_ [\atbs_core_0.uart_0.uart_rx_0.n2917_o\ _01044_ _01045_] _01046_ d_lut_sg13g2_nor3_1
A_07253_ [_00049_ _01046_] _01047_ d_lut_sg13g2_nand2_1
A_07254_ [\atbs_core_0.uart_0.uart_rx_0.n2907_o\] _01048_ d_lut_sg13g2_buf_1
A_07255_ [\atbs_core_0.atbs_win_length_uart\] _01049_ d_lut_sg13g2_buf_1
A_07256_ [_01049_ \atbs_core_0.atbs_max_delta_steps_uart\] _01050_ d_lut_sg13g2_nor2_1
A_07257_ [\atbs_core_0.uart_0.uart_rx_0.n2909_o\] _01051_ d_lut_sg13g2_buf_1
A_07258_ [\atbs_core_0.uart_0.uart_rx_0.n2913_o\] _01052_ d_lut_sg13g2_buf_1
A_07259_ [\atbs_core_0.uart_0.uart_rx_0.n2911_o\] _01053_ d_lut_sg13g2_buf_1
A_07260_ [_01052_ _01053_] _01054_ d_lut_sg13g2_nor2b_1
A_07261_ [_01051_ _01054_] _01055_ d_lut_sg13g2_nor2b_1
A_07262_ [\atbs_core_0.uart_0.uart_rx_0.n2917_o\] _01056_ d_lut_sg13g2_inv_1
A_07263_ [_01056_ _01044_ \atbs_core_0.uart_0.uart_rx_0.n2921_o\ \atbs_core_0.uart_0.uart_rx_0.n2919_o\] _01057_ d_lut_sg13g2_or4_1
A_07264_ [_01057_] _01058_ d_lut_sg13g2_buf_1
A_07265_ [_01048_ _01050_ _01055_ _01058_] _01059_ d_lut_sg13g2_nand4_1
A_07266_ [_01047_ _01059_ _00048_] _01060_ d_lut_sg13g2_o21ai_1
A_07267_ [\atbs_core_0.debouncer_5.debounced\ \atbs_core_0.n1049_q\] _01061_ d_lut_sg13g2_xor2_1
A_07268_ [\atbs_core_0.adaptive_mode_d\ \atbs_core_0.adaptive_mode_debounced\] _01062_ d_lut_sg13g2_xor2_1
A_07269_ [_00853_ \atbs_core_0.control_mode_d\] _01063_ d_lut_sg13g2_xor2_1
A_07270_ [_01061_ _01062_ _01063_] _01064_ d_lut_sg13g2_nor3_1
A_07271_ [\atbs_core_0.n1050_q\ \atbs_core_0.debouncer_0.debounced\] _01065_ d_lut_sg13g2_xnor2_1
A_07272_ [\atbs_core_0.n1048_q\ \atbs_core_0.debouncer_3.debounced\] _01066_ d_lut_sg13g2_xnor2_1
A_07273_ [_01064_ _01065_ _01066_] _01067_ d_lut_sg13g2_nand3_1
A_07274_ [_01043_ _01060_ _01067_] _01068_ d_lut_sg13g2_a21oi_1
A_07275_ [_00849_] _01069_ d_lut_sg13g2_buf_1
A_07276_ [_01069_ _00843_] _01070_ d_lut_sg13g2_nor2_1
A_07277_ [_00849_] _01071_ d_lut_sg13g2_inv_1
A_07278_ [_01071_ _00844_] _01072_ d_lut_sg13g2_nor2_1
A_07279_ [_01070_ _01072_ _00842_] _01073_ d_lut_sg13g2_o21ai_1
A_07280_ [_01068_ _01073_] _01074_ d_lut_sg13g2_nor2_1
A_07281_ [\atbs_core_0.atbs_max_delta_steps_uart\] _01075_ d_lut_sg13g2_inv_1
A_07282_ [\atbs_core_0.n1067_q\] _01076_ d_lut_sg13g2_inv_1
A_07283_ [\atbs_core_0.baudrate_uart\] _01077_ d_lut_sg13g2_buf_1
A_07284_ [_01077_ _01043_] _01078_ d_lut_sg13g2_nor2b_1
A_07285_ [_01076_ _01078_] _01079_ d_lut_sg13g2_and2_1
A_07286_ [_01079_] _01080_ d_lut_sg13g2_buf_1
A_07287_ [_01049_ _01080_] _01081_ d_lut_sg13g2_nor2b_1
A_07288_ [_01053_ _01052_] _01082_ d_lut_sg13g2_nor2_1
A_07289_ [_01051_ _01082_] _01083_ d_lut_sg13g2_nand2_1
A_07290_ [_01048_ _01083_] _01084_ d_lut_sg13g2_nor2_1
A_07291_ [_01075_ _01081_ _01046_ _01084_] _01085_ d_lut_sg13g2_nand4_1
A_07292_ [\atbs_core_0.n31_o\ _01085_] _00120_ d_lut_sg13g2_and2_1
A_07293_ [_01074_ _00120_] _00119_ d_lut_sg13g2_nor2b_1
A_07294_ [\atbs_core_0.debouncer_0.debounced\ \atbs_core_0.n1078_q\ _00853_] _01086_ d_lut_sg13g2_mux2_1
A_07295_ [_01048_] _01087_ d_lut_sg13g2_inv_1
A_07296_ [_01087_ _01083_] _01088_ d_lut_sg13g2_nor2_1
A_07297_ [_01080_ _01046_ _01050_ _01088_] _01089_ d_lut_sg13g2_nand4_1
A_07298_ [\atbs_core_0.n1051_q\ \atbs_core_0.n37_o\] _01090_ d_lut_sg13g2_nand2b_1
A_07299_ [_01086_ _01089_ _01090_] _01091_ d_lut_sg13g2_and3_1
A_07300_ [_01091_] _01092_ d_lut_sg13g2_buf_1
A_07301_ [_00849_ _00842_] _01093_ d_lut_sg13g2_nand2_1
A_07302_ [_00843_ _01092_ _01093_] _01094_ d_lut_sg13g2_nor3_1
A_07303_ [_01094_] _01095_ d_lut_sg13g2_buf_1
A_07304_ [_01086_ _01095_] _01096_ d_lut_sg13g2_nand2_1
A_07305_ [_00119_ _01096_] _00122_ d_lut_sg13g2_and2_1
A_07306_ [\atbs_core_0.adaptive_ctrl_0.n1308_o\] _01097_ d_lut_sg13g2_buf_1
A_07307_ [_00911_] _01098_ d_lut_sg13g2_inv_1
A_07308_ [_01013_ _01098_ _01014_] _01099_ d_lut_sg13g2_nand3_1
A_07309_ [_00926_ _00930_ _00935_ _01099_] _01100_ d_lut_sg13g2_nor4_1
A_07310_ [_00908_ _01100_] _01101_ d_lut_sg13g2_nand2_1
A_07311_ [\atbs_core_0.adaptive_ctrl_0.is_empty_interval\ _01097_ _01101_] _01102_ d_lut_sg13g2_nand3_1
A_07312_ [_00862_ \atbs_core_0.adaptive_ctrl_0.delta_steps_strb\ _01102_] _00125_ d_lut_sg13g2_o21ai_1
A_07313_ [_00052_] _01103_ d_lut_sg13g2_buf_1
A_07314_ [_01103_] _01104_ d_lut_sg13g2_inv_1
A_07315_ [_00949_] _01105_ d_lut_sg13g2_inv_1
A_07316_ [_01105_] _01106_ d_lut_sg13g2_buf_1
A_07317_ [_01106_] _01107_ d_lut_sg13g2_buf_1
A_07318_ [_01104_ _01107_] _01108_ d_lut_sg13g2_nor2_1
A_07319_ [_01097_ \atbs_core_0.adaptive_ctrl_0.is_empty_interval\ _01108_] _00126_ d_lut_sg13g2_mux2_1
A_07320_ [\atbs_core_0.adaptive_ctrl_0.n1447_q_0_\] _01109_ d_lut_sg13g2_buf_1
A_07321_ [_01109_] _01110_ d_lut_sg13g2_inv_1
A_07322_ [\atbs_core_0.adaptive_ctrl_0.adaptive_strb\ _00905_ _00940_] _01111_ d_lut_sg13g2_nand3_1
A_07323_ [_01003_ _01021_ _00904_] _01112_ d_lut_sg13g2_a21o_1
A_07324_ [_00859_ _01112_] _01113_ d_lut_sg13g2_or2_1
A_07325_ [_00029_] _01114_ d_lut_sg13g2_inv_1
A_07326_ [_01111_ _01113_ _01114_] _01115_ d_lut_sg13g2_a21oi_1
A_07327_ [_01115_] _01116_ d_lut_sg13g2_buf_1
A_07328_ [\atbs_core_0.adaptive_ctrl_0.weyls_discrepancy_0.n2677_q_1_\ \atbs_core_0.adaptive_ctrl_0.weyls_discrepancy_0.n2677_q_0_\ \atbs_core_0.adaptive_ctrl_0.weyls_discrepancy_0.n2677_q_2_\] _01117_ d_lut_sg13g2_a21oi_1
A_07329_ [_00997_ \atbs_core_0.adaptive_ctrl_0.max_delta_steps_i_6_\ _00032_] _01118_ d_lut_sg13g2_o21ai_1
A_07330_ [_01013_ \atbs_core_0.adaptive_ctrl_0.max_delta_steps_i_4_\] _01119_ d_lut_sg13g2_nand2_1
A_07331_ [_00912_ \atbs_core_0.adaptive_ctrl_0.max_delta_steps_i_2_\] _01120_ d_lut_sg13g2_nor2b_1
A_07332_ [\atbs_core_0.adaptive_ctrl_0.max_delta_steps_i_3_\ _01120_] _01121_ d_lut_sg13g2_nand2_1
A_07333_ [\atbs_core_0.adaptive_ctrl_0.max_delta_steps_i_3_\ _01120_ _01010_] _01122_ d_lut_sg13g2_o21ai_1
A_07334_ [_01119_ _01121_ _01122_] _01123_ d_lut_sg13g2_nand3_1
A_07335_ [_01013_ \atbs_core_0.adaptive_ctrl_0.max_delta_steps_i_4_\ _01123_] _01124_ d_lut_sg13g2_o21ai_1
A_07336_ [\atbs_core_0.adaptive_ctrl_0.max_delta_steps_i_5_\] _01125_ d_lut_sg13g2_inv_1
A_07337_ [_00935_ _01124_ _01125_] _01126_ d_lut_sg13g2_o21ai_1
A_07338_ [_00935_ _01124_] _01127_ d_lut_sg13g2_nand2_1
A_07339_ [_00997_ \atbs_core_0.adaptive_ctrl_0.max_delta_steps_i_6_\ _01126_ _01127_] _01128_ d_lut_sg13g2_a22oi_1
A_07340_ [_01117_ _01118_ _01128_] _01129_ d_lut_sg13g2_nor3_1
A_07341_ [\atbs_core_0.adaptive_ctrl_0.weyls_discrepancy_0.n2677_q_1_\ \atbs_core_0.adaptive_ctrl_0.weyls_discrepancy_0.n2677_q_2_\ _01100_] _01130_ d_lut_sg13g2_nor3_1
A_07342_ [\atbs_core_0.adaptive_ctrl_0.n1352_o\] _01131_ d_lut_sg13g2_buf_1
A_07343_ [_01129_ _01130_ _01131_] _01132_ d_lut_sg13g2_o21ai_1
A_07344_ [_01132_] _01133_ d_lut_sg13g2_buf_1
A_07345_ [_01129_] _01134_ d_lut_sg13g2_inv_1
A_07346_ [_00911_ _01134_ _01133_] _01135_ d_lut_sg13g2_a21oi_1
A_07347_ [_00090_ _01133_ _01135_] _01136_ d_lut_sg13g2_a21oi_1
A_07348_ [_01095_ _01116_ _01136_] _01137_ d_lut_sg13g2_nor3_1
A_07349_ [_01110_ _01116_ _01137_] _00127_ d_lut_sg13g2_a21o_1
A_07350_ [_01133_] _01138_ d_lut_sg13g2_buf_1
A_07351_ [_01129_] _01139_ d_lut_sg13g2_buf_1
A_07352_ [_00043_ _01139_] _01140_ d_lut_sg13g2_nor2_1
A_07353_ [_00908_ _01139_ _01140_] _01141_ d_lut_sg13g2_a21oi_1
A_07354_ [_01133_ _01141_] _01142_ d_lut_sg13g2_nor2_1
A_07355_ [_00911_ _01138_ _01142_] _01143_ d_lut_sg13g2_a21oi_1
A_07356_ [_01095_ _01115_] _01144_ d_lut_sg13g2_or2_1
A_07357_ [_01144_] _01145_ d_lut_sg13g2_buf_1
A_07358_ [\atbs_core_0.adaptive_ctrl_0.n1447_q_1_\] _01146_ d_lut_sg13g2_buf_1
A_07359_ [_01146_ _01116_] _01147_ d_lut_sg13g2_nand2_1
A_07360_ [_01143_ _01145_ _01147_] _00128_ d_lut_sg13g2_o21ai_1
A_07361_ [_00045_] _01148_ d_lut_sg13g2_inv_1
A_07362_ [_00040_ _01139_] _01149_ d_lut_sg13g2_nor2_1
A_07363_ [_01148_ _01139_ _01149_] _01150_ d_lut_sg13g2_a21oi_1
A_07364_ [_01138_ _01150_] _01151_ d_lut_sg13g2_nor2_1
A_07365_ [_00912_ _01138_ _01151_] _01152_ d_lut_sg13g2_a21oi_1