* XSpice netlist created from SPICE and liberty sources by spi2xspice.py
*SPICE netlist created from verilog structural netlist module atbs_core_fixed_window_board by vlog2Spice (qflow)
.subckt atbs_core_fixed_window_board a_VPWR a_VGND a_adaptive_mode_i a_bio_amp_en_o a_clock_i a_comp_lower_i a_comp_upper_i a_control_mode_i a_dac_lower_o_0_ a_dac_lower_o_1_ a_dac_lower_o_2_ a_dac_lower_o_3_ a_dac_upper_o_0_ a_dac_upper_o_1_ a_dac_upper_o_2_ a_dac_upper_o_3_ a_enable_i a_idle_led_o a_overflow_led_o a_phi_bias_1_o a_phi_bias_2_o a_phi_cmfb_1_o a_phi_cmfb_2_o a_phi_comp_o a_phi_dac_lower_o a_phi_dac_upper_o a_phi_res_1_o a_phi_res_2_o a_phi_vcm_generator_1_o a_phi_vcm_generator_2_o a_reset_n_i a_select_cap_o_0_ a_select_cap_o_1_ a_select_cap_o_2_ a_select_spdt_o a_select_tbs_delta_steps_i a_signal_select_in_i a_spike_o a_trigger_start_mode_i a_trigger_start_sampling_i a_uart_rx_i a_uart_tx_o a_underflow_led_o
A_14578_ [\atbs_core_0.enable_read\] _07516_ d_lut_sg13g2_inv_1
A_14579_ [\atbs_core_0.spike_memory_0.head_3_\] _07517_ d_lut_sg13g2_buf_1
A_14580_ [\atbs_core_0.spike_memory_0.n2438_q_3_\] _07518_ d_lut_sg13g2_buf_1
A_14581_ [\atbs_core_0.spike_memory_0.n2438_q_2_\] _07519_ d_lut_sg13g2_buf_1
A_14582_ [\atbs_core_0.spike_memory_0.head_2_\] _07520_ d_lut_sg13g2_buf_1
A_14583_ [_07519_ _07520_] _07521_ d_lut_sg13g2_nor2b_1
A_14584_ [\atbs_core_0.spike_memory_0.n2438_q_1_\] _07522_ d_lut_sg13g2_buf_1
A_14585_ [\atbs_core_0.spike_memory_0.head_1_\] _07523_ d_lut_sg13g2_buf_1
A_14586_ [_07522_ _07523_] _07524_ d_lut_sg13g2_nand2b_1
A_14587_ [\atbs_core_0.spike_memory_0.head_0_\] _07525_ d_lut_sg13g2_buf_1
A_14588_ [\atbs_core_0.spike_memory_0.n2438_q_0_\] _07526_ d_lut_sg13g2_buf_2
A_14589_ [_07525_ _07526_] _07527_ d_lut_sg13g2_nor2b_1
A_14590_ [_07527_] _07528_ d_lut_sg13g2_buf_1
A_14591_ [_07523_ _07522_] _07529_ d_lut_sg13g2_nor2b_1
A_14592_ [_07524_ _07528_ _07529_] _07530_ d_lut_sg13g2_a21oi_1
A_14593_ [_07520_ _07519_] _07531_ d_lut_sg13g2_nand2b_1
A_14594_ [_07521_ _07530_ _07531_] _07532_ d_lut_sg13g2_o21ai_1
A_14595_ [_07532_] _07533_ d_lut_sg13g2_buf_1
A_14596_ [_07518_ _07533_] _07534_ d_lut_sg13g2_nand2_1
A_14597_ [_07518_ _07533_] _07535_ d_lut_sg13g2_nor2_1
A_14598_ [_07517_ _07534_ _07535_] _07536_ d_lut_sg13g2_a21oi_1
A_14599_ [\atbs_core_0.spike_memory_0.head_4_\] _07537_ d_lut_sg13g2_buf_1
A_14600_ [\atbs_core_0.spike_memory_0.n2438_q_4_\] _07538_ d_lut_sg13g2_buf_1
A_14601_ [_07537_ _07538_] _07539_ d_lut_sg13g2_xor2_1
A_14602_ [_07536_ _07539_] _07540_ d_lut_sg13g2_xnor2_1
A_14603_ [_07540_] _07541_ d_lut_sg13g2_buf_1
A_14604_ [\atbs_core_0.spike_memory_0.head_5_\ \atbs_core_0.spike_memory_0.n2438_q_5_\] _07542_ d_lut_sg13g2_xor2_1
A_14605_ [_07538_ _07536_] _07543_ d_lut_sg13g2_nand2_1
A_14606_ [_07538_ _07536_] _07544_ d_lut_sg13g2_nor2_1
A_14607_ [_07537_ _07543_ _07544_] _07545_ d_lut_sg13g2_a21oi_1
A_14608_ [_07542_ _07545_] _07546_ d_lut_sg13g2_xnor2_1
A_14609_ [_07546_] _07547_ d_lut_sg13g2_buf_1
A_14610_ [_07541_ _07547_] _07548_ d_lut_sg13g2_nand2_1
A_14611_ [_07548_] _07549_ d_lut_sg13g2_buf_2
A_14612_ [_07521_ _07531_] _07550_ d_lut_sg13g2_nor2b_1
A_14613_ [_07530_ _07550_] _07551_ d_lut_sg13g2_xnor2_1
A_14614_ [_07551_] _07552_ d_lut_sg13g2_buf_1
A_14615_ [_07517_ _07518_] _07553_ d_lut_sg13g2_xnor2_1
A_14616_ [_07533_ _07553_] _07554_ d_lut_sg13g2_xor2_1
A_14617_ [_07554_] _07555_ d_lut_sg13g2_buf_1
A_14618_ [_07552_ _07555_] _07556_ d_lut_sg13g2_nand2_1
A_14619_ [_07523_ _07522_] _07557_ d_lut_sg13g2_xnor2_1
A_14620_ [_07557_] _07558_ d_lut_sg13g2_buf_1
A_14621_ [_07526_ _07525_] _07559_ d_lut_sg13g2_nor2b_1
A_14622_ [_07559_] _07560_ d_lut_sg13g2_buf_1
A_14623_ [_07528_ _07560_] _07561_ d_lut_sg13g2_nor2_1
A_14624_ [_07558_ _07561_] _07562_ d_lut_sg13g2_nand2_1
A_14625_ [_07562_] _07563_ d_lut_sg13g2_buf_1
A_14626_ [_07549_ _07556_ _07563_] _07564_ d_lut_sg13g2_nor3_1
A_14627_ [_07516_ \atbs_core_0.spike_memory_0.n2317_o\ _07564_] _07565_ d_lut_sg13g2_nor3_1
A_14628_ [_07565_] \atbs_core_0.spike_memory_0.n2319_o\ d_lut_sg13g2_buf_2
A_14629_ [\atbs_core_0.spike_detector_0.n1595_q\ \atbs_core_0.spike_detector_0.lower_is_changing\] _07566_ d_lut_sg13g2_nor2_1
A_14630_ [_07566_] \atbs_core_0.spike_detector_0.n1583_o\ d_lut_sg13g2_inv_1
A_14631_ [\atbs_core_0.uart_0.uart_rx_0.n3413_o\] _07567_ d_lut_sg13g2_buf_1
A_14632_ [_07567_] _07568_ d_lut_sg13g2_inv_1
A_14633_ [\atbs_core_0.baudrate_adj_uart_7_\] _07569_ d_lut_sg13g2_buf_1
A_14634_ [\atbs_core_0.uart_0.uart_rx_0.baud_counter_value_7_\] _07570_ d_lut_sg13g2_inv_1
A_14635_ [_07569_ _07570_] _07571_ d_lut_sg13g2_nor2_1
A_14636_ [_07569_ _07570_] _07572_ d_lut_sg13g2_nand2_1
A_14637_ [_07571_ _07572_] _07573_ d_lut_sg13g2_nor2b_1
A_14638_ [\atbs_core_0.baudrate_adj_uart_6_\] _07574_ d_lut_sg13g2_buf_1
A_14639_ [\atbs_core_0.uart_0.uart_rx_0.baud_counter_value_6_\] _07575_ d_lut_sg13g2_buf_1
A_14640_ [_07574_ _07575_] _07576_ d_lut_sg13g2_xnor2_1
A_14641_ [\atbs_core_0.baudrate_adj_uart_2_\] _07577_ d_lut_sg13g2_buf_1
A_14642_ [\atbs_core_0.uart_0.uart_rx_0.baud_counter_value_2_\] _07578_ d_lut_sg13g2_buf_1
A_14643_ [_07577_ _07578_] _07579_ d_lut_sg13g2_xnor2_1
A_14644_ [\atbs_core_0.baudrate_adj_uart_5_\] _07580_ d_lut_sg13g2_buf_1
A_14645_ [\atbs_core_0.uart_0.uart_rx_0.baud_counter_value_5_\] _07581_ d_lut_sg13g2_buf_1
A_14646_ [\atbs_core_0.uart_0.uart_rx_0.baud_counter_value_8_\] _07582_ d_lut_sg13g2_buf_1
A_14647_ [_07580_ _07581_ _07582_] _07583_ d_lut_sg13g2_nand3_1
A_14648_ [_07580_ _07581_ _07582_] _07584_ d_lut_sg13g2_or3_1
A_14649_ [\atbs_core_0.baudrate_adj_uart_1_\] _07585_ d_lut_sg13g2_buf_1
A_14650_ [\atbs_core_0.uart_0.uart_rx_0.baud_counter_value_1_\] _07586_ d_lut_sg13g2_buf_1
A_14651_ [\atbs_core_0.uart_0.uart_rx_0.baud_counter_value_3_\] _07587_ d_lut_sg13g2_buf_1
A_14652_ [_07585_ _07586_ _07587_] _07588_ d_lut_sg13g2_nand3_1
A_14653_ [_07585_ _07586_ _07587_] _07589_ d_lut_sg13g2_or3_1
A_14654_ [\atbs_core_0.baudrate_adj_uart_4_\] _07590_ d_lut_sg13g2_buf_1
A_14655_ [\atbs_core_0.uart_0.uart_rx_0.baud_counter_value_4_\] _07591_ d_lut_sg13g2_buf_1
A_14656_ [_07590_ _07591_] _07592_ d_lut_sg13g2_nand2b_1
A_14657_ [_07591_ _07590_] _07593_ d_lut_sg13g2_nand2b_1
A_14658_ [\atbs_core_0.uart_0.uart_rx_0.baud_counter_value_0_\] _07594_ d_lut_sg13g2_buf_1
A_14659_ [\atbs_core_0.baudrate_adj_uart_0_\] _07595_ d_lut_sg13g2_buf_1
A_14660_ [_07594_ _07595_] _07596_ d_lut_sg13g2_nand2b_1
A_14661_ [_07595_ _07594_] _07597_ d_lut_sg13g2_nand2b_1
A_14662_ [_07592_ _07593_ _07596_ _07597_] _07598_ d_lut_sg13g2_nand4_1
A_14663_ [_07583_ _07584_ _07588_ _07589_ _07598_] _07599_ d_lut_sg13g2_a221oi_1
A_14664_ [_07573_ _07576_ _07579_ _07599_] _07600_ d_lut_sg13g2_nand4_1
A_14665_ [_07600_] _07601_ d_lut_sg13g2_buf_1
A_14666_ [\atbs_core_0.uart_0.uart_rx_0.n3456_o\] _07602_ d_lut_sg13g2_buf_1
A_14667_ [\atbs_core_0.uart_0.uart_rx_0.n3454_o\] _07603_ d_lut_sg13g2_buf_1
A_14668_ [_07602_ _07603_] _07604_ d_lut_sg13g2_nand2_1
A_14669_ [\atbs_core_0.uart_0.uart_rx_0.n3462_o\] _07605_ d_lut_sg13g2_buf_1
A_14670_ [_07601_] _07606_ d_lut_sg13g2_inv_1
A_14671_ [_07605_ _07606_] _07607_ d_lut_sg13g2_nand2_1
A_14672_ [\atbs_core_0.uart_0.uart_rx_0.n3384_o\] _07608_ d_lut_sg13g2_buf_1
A_14673_ [_07604_ _07607_ _07608_] _07609_ d_lut_sg13g2_o21ai_1
A_14674_ [_07568_ _07601_ _07609_] _00000_ d_lut_sg13g2_o21ai_1
A_14675_ [\atbs_core_0.uart_0.uart_tx_0.baud_counter_value_5_\] _07610_ d_lut_sg13g2_buf_1
A_14676_ [\atbs_core_0.uart_0.uart_tx_0.baud_counter_value_8_\] _07611_ d_lut_sg13g2_buf_1
A_14677_ [_07610_ _07611_] _07612_ d_lut_sg13g2_or2_1
A_14678_ [_07580_ _07610_ _07611_] _07613_ d_lut_sg13g2_nand3_1
A_14679_ [_07580_ _07612_ _07613_] _07614_ d_lut_sg13g2_o21ai_1
A_14680_ [\atbs_core_0.uart_0.uart_tx_0.baud_counter_value_0_\] _07615_ d_lut_sg13g2_buf_1
A_14681_ [_07595_ _07615_] _07616_ d_lut_sg13g2_nand2b_1
A_14682_ [_07574_] _07617_ d_lut_sg13g2_inv_1
A_14683_ [\atbs_core_0.uart_0.uart_tx_0.baud_counter_value_6_\] _07618_ d_lut_sg13g2_buf_1
A_14684_ [_07617_ _07618_] _07619_ d_lut_sg13g2_nand2_1
A_14685_ [_07618_ _07574_] _07620_ d_lut_sg13g2_nand2b_1
A_14686_ [_07614_ _07616_ _07619_ _07620_] _07621_ d_lut_sg13g2_nand4_1
A_14687_ [_07585_] _07622_ d_lut_sg13g2_inv_1
A_14688_ [\atbs_core_0.uart_0.uart_tx_0.baud_counter_value_1_\] _07623_ d_lut_sg13g2_buf_1
A_14689_ [_07615_] _07624_ d_lut_sg13g2_inv_1
A_14690_ [\atbs_core_0.uart_0.uart_tx_0.baud_counter_value_2_\] _07625_ d_lut_sg13g2_buf_1
A_14691_ [_07577_ _07625_] _07626_ d_lut_sg13g2_xor2_1
A_14692_ [_07595_ _07624_ _07623_ _07622_ _07626_] _07627_ d_lut_sg13g2_a221oi_1
A_14693_ [_07622_ _07623_ _07627_] _07628_ d_lut_sg13g2_o21ai_1
A_14694_ [_07569_ \atbs_core_0.uart_0.uart_tx_0.baud_counter_value_7_\] _07629_ d_lut_sg13g2_xnor2_1
A_14695_ [\atbs_core_0.uart_0.uart_tx_0.baud_counter_value_3_\] _07630_ d_lut_sg13g2_buf_1
A_14696_ [_07585_ _07630_] _07631_ d_lut_sg13g2_xnor2_1
A_14697_ [\atbs_core_0.uart_0.uart_tx_0.baud_counter_value_4_\] _07632_ d_lut_sg13g2_buf_1
A_14698_ [_07590_ _07632_] _07633_ d_lut_sg13g2_nand2b_1
A_14699_ [_07632_ _07590_] _07634_ d_lut_sg13g2_nand2b_1
A_14700_ [_07629_ _07631_ _07633_ _07634_] _07635_ d_lut_sg13g2_nand4_1
A_14701_ [_07621_ _07628_ _07635_] _07636_ d_lut_sg13g2_nor3_1
A_14702_ [_07636_] _07637_ d_lut_sg13g2_buf_1
A_14703_ [\atbs_core_0.uart_0.uart_tx_0.n3286_o\] _07638_ d_lut_sg13g2_buf_1
A_14704_ [_00062_] _07639_ d_lut_sg13g2_inv_1
A_14705_ [\atbs_core_0.uart_0.uart_tx_0.n3295_o\] _07640_ d_lut_sg13g2_buf_1
A_14706_ [_07638_ _07639_ _07640_] _07641_ d_lut_sg13g2_a21oi_1
A_14707_ [_07637_ _07641_] _00004_ d_lut_sg13g2_nor2_1
A_14708_ [\atbs_core_0.uart_0.uart_tx_0.n3300_o\] _07642_ d_lut_sg13g2_buf_1
A_14709_ [\atbs_core_0.uart_0.uart_tx_0.n3345_q_1_\] _07643_ d_lut_sg13g2_buf_1
A_14710_ [\atbs_core_0.uart_0.uart_tx_0.n3345_q_0_\] _07644_ d_lut_sg13g2_buf_1
A_14711_ [\atbs_core_0.uart_0.uart_tx_0.n3345_q_2_\] _07645_ d_lut_sg13g2_buf_1
A_14712_ [_07643_ _07644_ _07645_ _07637_] _07646_ d_lut_sg13g2_nand4_1
A_14713_ [\atbs_core_0.uart_0.uart_tx_0.n3264_o\] _07647_ d_lut_sg13g2_buf_1
A_14714_ [_07642_ _07637_ _07646_ _07647_] _07648_ d_lut_sg13g2_a22oi_1
A_14715_ [_07648_] _00005_ d_lut_sg13g2_inv_1
A_14716_ [\atbs_core_0.uart_0.uart_tx_0.n3323_o\] _07649_ d_lut_sg13g2_buf_1
A_14717_ [_07638_ _07649_ \atbs_core_0.memory2uart_0.n2605_q\] _07650_ d_lut_sg13g2_o21ai_1
A_14718_ [_07640_ _07650_] _07651_ d_lut_sg13g2_nor2b_1
A_14719_ [_07642_ _07637_] _07652_ d_lut_sg13g2_nor2_1
A_14720_ [_07637_ _07651_ _07652_] _00003_ d_lut_sg13g2_a21oi_1
A_14721_ [\atbs_core_0.control_mode_debounced\] _07653_ d_lut_sg13g2_buf_16
A_14722_ [_07653_ \atbs_core_0.debouncer_4.debounced\] _07654_ d_lut_sg13g2_nor2b_1
A_14723_ [_07653_ \atbs_core_0.enable_analog_uart\ _07654_] _07655_ d_lut_sg13g2_a21oi_1
A_14724_ [_07655_] _07656_ d_lut_sg13g2_inv_1
A_14725_ [_07656_] _07657_ d_lut_sg13g2_buf_1
A_14726_ [_07657_] _07658_ d_lut_sg13g2_buf_1
A_14727_ [_07658_] bio_amp_en_o d_lut_sg13g2_buf_1
A_14728_ [_07608_ _07602_ _07603_] _07659_ d_lut_sg13g2_nand3_1
A_14729_ [\atbs_core_0.uart_0.uart_rx_0.n3438_o\] _07660_ d_lut_sg13g2_buf_1
A_14730_ [_07594_ _07578_] _07661_ d_lut_sg13g2_or2_1
A_14731_ [_07585_ _07594_ _07578_] _07662_ d_lut_sg13g2_nand3_1
A_14732_ [_07585_ _07661_ _07662_] _07663_ d_lut_sg13g2_o21ai_1
A_14733_ [_07575_ _07569_] _07664_ d_lut_sg13g2_xnor2_1
A_14734_ [_00057_ _07663_ _07664_] _07665_ d_lut_sg13g2_nand3_1
A_14735_ [_07591_ \atbs_core_0.uart_0.uart_rx_0.baud_counter_value_7_\] _07666_ d_lut_sg13g2_or2_1
A_14736_ [_07591_ _07580_ \atbs_core_0.uart_0.uart_rx_0.baud_counter_value_7_\] _07667_ d_lut_sg13g2_nand3_1
A_14737_ [_07580_ _07666_ _07667_] _07668_ d_lut_sg13g2_o21ai_1
A_14738_ [_07586_ _07577_] _07669_ d_lut_sg13g2_xor2_1
A_14739_ [_07587_ _07590_] _07670_ d_lut_sg13g2_xor2_1
A_14740_ [_07581_ _07574_] _07671_ d_lut_sg13g2_xor2_1
A_14741_ [_07669_ _07670_ _07671_] _07672_ d_lut_sg13g2_nor3_1
A_14742_ [_07665_ _07668_ _07672_] _07673_ d_lut_sg13g2_nand3b_1
A_14743_ [_07660_ _07673_] _07674_ d_lut_sg13g2_nand2_1
A_14744_ [_07607_ _07659_ _07674_] _00002_ d_lut_sg13g2_o21ai_1
A_14745_ [\atbs_core_0.uart_0.uart_rx_0.n3399_o\] _07675_ d_lut_sg13g2_buf_1
A_14746_ [uart_rx_i] _07676_ d_lut_sg13g2_inv_1
A_14747_ [_07675_ _07676_ _07601_ _07567_] _07677_ d_lut_sg13g2_a22oi_1
A_14748_ [_07677_] _00001_ d_lut_sg13g2_inv_1
A_14749_ [\atbs_core_0.dac_control_0.n1833_o\] _07678_ d_lut_sg13g2_buf_1
A_14750_ [_07678_] _07679_ d_lut_sg13g2_buf_1
A_14751_ [_07655_] _07680_ d_lut_sg13g2_buf_1
A_14752_ [\atbs_core_0.n1412_q_2_\] _07681_ d_lut_sg13g2_buf_1
A_14753_ [_07681_] _07682_ d_lut_sg13g2_inv_1
A_14754_ [_07682_ _00056_] _07683_ d_lut_sg13g2_nand2_1
A_14755_ [_07683_] _07684_ d_lut_sg13g2_buf_1
A_14756_ [\atbs_core_0.n1412_q_1_\] _07685_ d_lut_sg13g2_buf_1
A_14757_ [\atbs_core_0.n1412_q_0_\ _07685_] _07686_ d_lut_sg13g2_nand2b_1
A_14758_ [\atbs_core_0.main_counter_value_8_\] _07687_ d_lut_sg13g2_buf_1
A_14759_ [\atbs_core_0.main_counter_value_11_\] _07688_ d_lut_sg13g2_buf_1
A_14760_ [\atbs_core_0.main_counter_value_15_\] _07689_ d_lut_sg13g2_buf_1
A_14761_ [_07687_ _07688_ _07689_ \atbs_core_0.main_counter_value_14_\] _07690_ d_lut_sg13g2_nor4_1
A_14762_ [\atbs_core_0.main_counter_value_9_\ _07690_] _07691_ d_lut_sg13g2_nor2b_1
A_14763_ [\atbs_core_0.main_counter_value_12_\] _07692_ d_lut_sg13g2_buf_1
A_14764_ [\atbs_core_0.main_counter_value_10_\ \atbs_core_0.main_counter_value_13_\ _07692_] _07693_ d_lut_sg13g2_nor3_1
A_14765_ [\atbs_core_0.main_counter_value_3_\ _07691_ _07693_] _07694_ d_lut_sg13g2_nand3_1
A_14766_ [\atbs_core_0.main_counter_value_18_\] _07695_ d_lut_sg13g2_buf_1
A_14767_ [_07695_ \atbs_core_0.main_counter_value_19_\] _07696_ d_lut_sg13g2_nor2_1
A_14768_ [\atbs_core_0.main_counter_value_5_\] _07697_ d_lut_sg13g2_buf_1
A_14769_ [\atbs_core_0.main_counter_value_4_\] _07698_ d_lut_sg13g2_buf_1
A_14770_ [_07697_ _07698_ \atbs_core_0.main_counter_value_6_\ \atbs_core_0.main_counter_value_7_\] _07699_ d_lut_sg13g2_nor4_1
A_14771_ [\atbs_core_0.main_counter_value_0_\] _07700_ d_lut_sg13g2_buf_1
A_14772_ [\atbs_core_0.main_counter_value_1_\] _07701_ d_lut_sg13g2_buf_1
A_14773_ [_07700_ _07701_ \atbs_core_0.main_counter_value_2_\] _07702_ d_lut_sg13g2_nor3_1
A_14774_ [_07696_ _07699_ _07702_] _07703_ d_lut_sg13g2_nand3_1
A_14775_ [\atbs_core_0.main_counter_value_17_\] _07704_ d_lut_sg13g2_buf_1
A_14776_ [\atbs_core_0.main_counter_value_16_\] _07705_ d_lut_sg13g2_buf_1
A_14777_ [_07704_ _07705_] _07706_ d_lut_sg13g2_nor2b_1
A_14778_ [_07703_ _07706_] _07707_ d_lut_sg13g2_nand2b_1
A_14779_ [_07684_ _07686_ _07694_ _07707_] _07708_ d_lut_sg13g2_nor4_1
A_14780_ [_07708_] _07709_ d_lut_sg13g2_buf_1
A_14781_ [\atbs_core_0.adaptive_mode_debounced\] _07710_ d_lut_sg13g2_buf_4
A_14782_ [_07710_ \atbs_core_0.adaptive_mode_uart\ _07653_] _07711_ d_lut_sg13g2_mux2_2
A_14783_ [_07711_] _07712_ d_lut_sg13g2_buf_8
A_14784_ [_07712_] _07713_ d_lut_sg13g2_buf_2
A_14785_ [\atbs_core_0.adaptive_ctrl_0.delta_steps_strb\] _07714_ d_lut_sg13g2_inv_1
A_14786_ [\atbs_core_0.adaptive_ctrl_0.adapt_on_overflow\] _07715_ d_lut_sg13g2_buf_2
A_14787_ [\atbs_core_0.spike_detector_0.lock_detection\] _07716_ d_lut_sg13g2_buf_1
A_14788_ [\atbs_core_0.detection_en\] _07717_ d_lut_sg13g2_inv_1
A_14789_ [_07716_ _07717_] _07718_ d_lut_sg13g2_nor2_1
A_14790_ [\atbs_core_0.adaptive_ctrl_0.n1705_o_5_\] _07719_ d_lut_sg13g2_buf_2
A_14791_ [\atbs_core_0.adaptive_ctrl_0.n1705_o_4_\] _07720_ d_lut_sg13g2_buf_2
A_14792_ [\atbs_core_0.adaptive_ctrl_0.n1705_o_6_\] _07721_ d_lut_sg13g2_buf_2
A_14793_ [\atbs_core_0.adaptive_ctrl_0.n1785_q_7_\] _07722_ d_lut_sg13g2_buf_2
A_14794_ [_07719_ _07720_ _07721_ _07722_] _07723_ d_lut_sg13g2_nor4_2
A_14795_ [\atbs_core_0.adaptive_ctrl_0.n1705_o_1_\] _07724_ d_lut_sg13g2_buf_2
A_14796_ [\atbs_core_0.adaptive_ctrl_0.n1705_o_0_\] _07725_ d_lut_sg13g2_buf_2
A_14797_ [_07724_ _07725_] _07726_ d_lut_sg13g2_nor2_2
A_14798_ [\atbs_core_0.adaptive_ctrl_0.n1705_o_3_\] _07727_ d_lut_sg13g2_buf_1
A_14799_ [\atbs_core_0.adaptive_ctrl_0.n1705_o_2_\] _07728_ d_lut_sg13g2_buf_2
A_14800_ [_07727_ _07728_] _07729_ d_lut_sg13g2_nor2_1
A_14801_ [_07712_ _07723_ _07726_ _07729_] _07730_ d_lut_sg13g2_nand4_1
A_14802_ [\atbs_core_0.n1386_q\ _07712_] _07731_ d_lut_sg13g2_or2_1
A_14803_ [\atbs_core_0.comp_upper_sync\ _07718_ _07730_ _07731_] _07732_ d_lut_sg13g2_and4_1
A_14804_ [_07732_] _07733_ d_lut_sg13g2_buf_8
A_14805_ [\atbs_core_0.adaptive_mode_uart\ _07653_] _07734_ d_lut_sg13g2_nand2_1
A_14806_ [_07653_ _07710_] _07735_ d_lut_sg13g2_nand2b_1
A_14807_ [\atbs_core_0.adaptive_ctrl_0.n1710_o_5_\] _07736_ d_lut_sg13g2_buf_8
A_14808_ [\atbs_core_0.adaptive_ctrl_0.n1710_o_4_\] _07737_ d_lut_sg13g2_buf_4
A_14809_ [\atbs_core_0.adaptive_ctrl_0.n1710_o_6_\] _07738_ d_lut_sg13g2_buf_4
A_14810_ [\atbs_core_0.adaptive_ctrl_0.n1786_q_7_\] _07739_ d_lut_sg13g2_buf_2
A_14811_ [_07736_ _07737_ _07738_ _07739_] _07740_ d_lut_sg13g2_nor4_1
A_14812_ [\atbs_core_0.adaptive_ctrl_0.n1710_o_1_\] _07741_ d_lut_sg13g2_buf_4
A_14813_ [\atbs_core_0.adaptive_ctrl_0.n1710_o_0_\] _07742_ d_lut_sg13g2_buf_4
A_14814_ [\atbs_core_0.adaptive_ctrl_0.n1710_o_3_\] _07743_ d_lut_sg13g2_buf_4
A_14815_ [\atbs_core_0.adaptive_ctrl_0.n1710_o_2_\] _07744_ d_lut_sg13g2_buf_4
A_14816_ [_07741_ _07742_ _07743_ _07744_] _07745_ d_lut_sg13g2_nor4_1
A_14817_ [_07716_ \atbs_core_0.detection_en\ \atbs_core_0.comp_lower_sync\] _07746_ d_lut_sg13g2_nand3b_1
A_14818_ [_07734_ _07735_ _07740_ _07745_ _07746_] _07747_ d_lut_sg13g2_a221oi_1
A_14819_ [\atbs_core_0.n1387_q\ \atbs_core_0.comp_lower_sync\] _07748_ d_lut_sg13g2_nand2_1
A_14820_ [_07716_ _07717_ _07712_ _07748_] _07749_ d_lut_sg13g2_nor4_1
A_14821_ [_00053_ _07747_ _07749_] _07750_ d_lut_sg13g2_nor3_2
A_14822_ [_07750_] _07751_ d_lut_sg13g2_buf_8
A_14823_ [_07733_ _07751_] _07752_ d_lut_sg13g2_nor2_2
A_14824_ [_07752_] _07753_ d_lut_sg13g2_buf_8
A_14825_ [_07753_] _07754_ d_lut_sg13g2_inv_8
A_14826_ [_07754_] _07755_ d_lut_sg13g2_buf_16
A_14827_ [\atbs_core_0.adaptive_ctrl_0.delta_steps_1_\] _07756_ d_lut_sg13g2_buf_4
A_14828_ [_07756_] _07757_ d_lut_sg13g2_inv_1
A_14829_ [\atbs_core_0.adaptive_ctrl_0.delta_steps_0_\] _07758_ d_lut_sg13g2_buf_1
A_14830_ [_07742_ _07758_] _07759_ d_lut_sg13g2_nand2b_1
A_14831_ [_07741_ _07757_ _07759_] _07760_ d_lut_sg13g2_a21oi_1
A_14832_ [\atbs_core_0.adaptive_ctrl_0.delta_steps_2_\] _07761_ d_lut_sg13g2_buf_4
A_14833_ [_07744_ _07761_] _07762_ d_lut_sg13g2_nand2b_1
A_14834_ [_07741_ _07757_ _07762_] _07763_ d_lut_sg13g2_o21ai_1
A_14835_ [\atbs_core_0.adaptive_ctrl_0.delta_steps_3_\] _07764_ d_lut_sg13g2_buf_4
A_14836_ [_07764_] _07765_ d_lut_sg13g2_inv_2
A_14837_ [_07761_] _07766_ d_lut_sg13g2_inv_1
A_14838_ [_07743_ _07765_ _07766_ _07744_] _07767_ d_lut_sg13g2_a22oi_1
A_14839_ [_07760_ _07763_ _07767_] _07768_ d_lut_sg13g2_o21ai_1
A_14840_ [\atbs_core_0.adaptive_ctrl_0.delta_steps_6_\] _07769_ d_lut_sg13g2_buf_4
A_14841_ [_07738_ _07769_] _07770_ d_lut_sg13g2_nand2b_1
A_14842_ [_07769_ _07738_] _07771_ d_lut_sg13g2_nand2b_1
A_14843_ [\atbs_core_0.adaptive_ctrl_0.delta_steps_4_\] _07772_ d_lut_sg13g2_buf_1
A_14844_ [_07772_] _07773_ d_lut_sg13g2_buf_4
A_14845_ [_07737_ _07773_] _07774_ d_lut_sg13g2_xnor2_1
A_14846_ [_07743_] _07775_ d_lut_sg13g2_inv_1
A_14847_ [_07736_ \atbs_core_0.adaptive_ctrl_0.delta_steps_5_\] _07776_ d_lut_sg13g2_or2_1
A_14848_ [\atbs_core_0.adaptive_ctrl_0.delta_steps_5_\] _07777_ d_lut_sg13g2_buf_4
A_14849_ [_07736_ _07777_] _07778_ d_lut_sg13g2_nand2_1
A_14850_ [_07775_ _07764_ _07776_ _07778_ _07739_] _07779_ d_lut_sg13g2_a221oi_1
A_14851_ [_07770_ _07771_ _07774_ _07779_] _07780_ d_lut_sg13g2_and4_1
A_14852_ [_07737_] _07781_ d_lut_sg13g2_inv_1
A_14853_ [_07781_ _07773_ _07777_] _07782_ d_lut_sg13g2_o21ai_1
A_14854_ [_07781_ _07777_ _07773_] _07783_ d_lut_sg13g2_nor3_1
A_14855_ [_07736_ _07782_ _07783_] _07784_ d_lut_sg13g2_a21o_1
A_14856_ [_07739_ _07771_] _07785_ d_lut_sg13g2_nand2b_1
A_14857_ [_07768_ _07780_ _07784_ _07770_ _07785_] _07786_ d_lut_sg13g2_a221oi_1
A_14858_ [_07786_] _07787_ d_lut_sg13g2_buf_2
A_14859_ [_07787_] _07788_ d_lut_sg13g2_buf_4
A_14860_ [_07788_] _07789_ d_lut_sg13g2_buf_8
A_14861_ [_00054_] _07790_ d_lut_sg13g2_buf_1
A_14862_ [_00052_ _07790_] _07791_ d_lut_sg13g2_or2_1
A_14863_ [_07715_ _07755_ _07789_ _07791_] _07792_ d_lut_sg13g2_nor4_1
A_14864_ [_07714_ _07792_] _07793_ d_lut_sg13g2_nor2_1
A_14865_ [_07793_] _07794_ d_lut_sg13g2_buf_1
A_14866_ [\atbs_core_0.comp_upper_sync\ _07718_ _07730_ _07731_] _07795_ d_lut_sg13g2_nand4_1
A_14867_ [_07712_ _07740_ _07745_] _07796_ d_lut_sg13g2_nand3_1
A_14868_ [\atbs_core_0.n1387_q\ _07712_ _07796_] _07797_ d_lut_sg13g2_o21ai_1
A_14869_ [_07797_ _07746_] _07798_ d_lut_sg13g2_or2_1
A_14870_ [_07798_] _07799_ d_lut_sg13g2_buf_1
A_14871_ [_07795_ _07799_] _07800_ d_lut_sg13g2_and2_1
A_14872_ [_07800_] _07801_ d_lut_sg13g2_buf_1
A_14873_ [_07713_ _07801_] _07802_ d_lut_sg13g2_nor2_1
A_14874_ [_07713_ _07794_ _07802_] _07803_ d_lut_sg13g2_a21oi_1
A_14875_ [_07709_ _07803_] _07804_ d_lut_sg13g2_nor2b_1
A_14876_ [_07804_] _07805_ d_lut_sg13g2_buf_2
A_14877_ [_07805_] \atbs_core_0.dac_control_0.sync_chain_0.async_i\ d_lut_sg13g2_inv_1
A_14878_ [_07678_ \atbs_core_0.dac_control_0.sync_chain_0.async_i\] _07806_ d_lut_sg13g2_nor2_1
A_14879_ [_07679_ _07680_ _07806_] \atbs_core_0.dac_control_0.n1836_o\ d_lut_sg13g2_a21oi_1
A_14880_ [_07713_] _07807_ d_lut_sg13g2_buf_1
A_14881_ [_07715_] _07808_ d_lut_sg13g2_inv_1
A_14882_ [_07808_] _07809_ d_lut_sg13g2_buf_4
A_14883_ [_07728_] _07810_ d_lut_sg13g2_inv_1
A_14884_ [_07810_ _07761_] _07811_ d_lut_sg13g2_nand2_1
A_14885_ [_07724_] _07812_ d_lut_sg13g2_inv_1
A_14886_ [_07725_ _07758_] _07813_ d_lut_sg13g2_nor2b_1
A_14887_ [_07812_ _07756_ _07813_] _07814_ d_lut_sg13g2_o21ai_1
A_14888_ [_07812_ _07756_] _07815_ d_lut_sg13g2_nand2_1
A_14889_ [_07811_ _07814_ _07815_] _07816_ d_lut_sg13g2_and3_1
A_14890_ [_07777_ _07719_] _07817_ d_lut_sg13g2_nor2b_1
A_14891_ [_07772_ _07720_] _07818_ d_lut_sg13g2_nor2b_1
A_14892_ [_07817_ _07818_] _07819_ d_lut_sg13g2_nor2_1
A_14893_ [_07727_ _07765_ _07766_ _07728_] _07820_ d_lut_sg13g2_a22oi_1
A_14894_ [_07769_ _07721_] _07821_ d_lut_sg13g2_nor2b_1
A_14895_ [_07722_ _07821_] _07822_ d_lut_sg13g2_nor2_1
A_14896_ [_07819_ _07820_ _07822_] _07823_ d_lut_sg13g2_nand3_1
A_14897_ [_07719_ _07777_] _07824_ d_lut_sg13g2_nand2b_1
A_14898_ [_07721_ _07769_] _07825_ d_lut_sg13g2_nand2b_1
A_14899_ [_00055_ _07824_ _07825_] _07826_ d_lut_sg13g2_nand3_1
A_14900_ [_07722_ _07817_ _07818_ _07821_] _07827_ d_lut_sg13g2_nor4_1
A_14901_ [_07727_ _07764_] _07828_ d_lut_sg13g2_nor2b_1
A_14902_ [_07720_ _07773_] _07829_ d_lut_sg13g2_nor2b_1
A_14903_ [_07817_ _07818_ _07828_ _07829_] _07830_ d_lut_sg13g2_or4_1
A_14904_ [_07826_ _07822_ _07827_ _07830_] _07831_ d_lut_sg13g2_a22oi_1
A_14905_ [_07816_ _07823_ _07831_] _07832_ d_lut_sg13g2_o21ai_1
A_14906_ [_07832_] _07833_ d_lut_sg13g2_buf_4
A_14907_ [_07833_] _07834_ d_lut_sg13g2_buf_8
A_14908_ [_07809_ _07834_] _07835_ d_lut_sg13g2_nand2_1
A_14909_ [_00051_] _07836_ d_lut_sg13g2_buf_1
A_14910_ [_07733_ _07751_ _07836_] _07837_ d_lut_sg13g2_o21ai_1
A_14911_ [_07837_] _07838_ d_lut_sg13g2_buf_1
A_14912_ [_07791_ _07838_] _07839_ d_lut_sg13g2_nor2_1
A_14913_ [_07835_ _07839_ _07714_] _07840_ d_lut_sg13g2_a21oi_1
A_14914_ [_07807_ _07840_ _07802_] _07841_ d_lut_sg13g2_a21o_1
A_14915_ [_07709_ _07841_] _07842_ d_lut_sg13g2_nor2_1
A_14916_ [_07842_] _07843_ d_lut_sg13g2_buf_1
A_14917_ [_07843_] \atbs_core_0.dac_control_1.sync_chain_0.async_i\ d_lut_sg13g2_inv_1
A_14918_ [_07657_] _07844_ d_lut_sg13g2_buf_1
A_14919_ [\atbs_core_0.dac_control_1.sync_chain_0.async_i\ _07844_ \atbs_core_0.dac_control_1.n1981_o\] \atbs_core_0.dac_control_1.n1984_o\ d_lut_sg13g2_mux2_1
A_14920_ [_07647_] _07845_ d_lut_sg13g2_inv_1
A_14921_ [_07645_] _07846_ d_lut_sg13g2_inv_1
A_14922_ [_07643_ _07644_] _07847_ d_lut_sg13g2_nand2_1
A_14923_ [_07845_ _07846_ _07847_] _07848_ d_lut_sg13g2_nor3_1
A_14924_ [_07649_ _07848_ _07637_] \atbs_core_0.uart_0.uart_tx_0.n3331_o_2_\ d_lut_sg13g2_mux2_1
A_14925_ [\atbs_core_0.atbs_win_length_uart\] _07849_ d_lut_sg13g2_buf_1
A_14926_ [\atbs_core_0.atbs_max_delta_steps_uart\ _07849_] _07850_ d_lut_sg13g2_nor2_1
A_14927_ [\atbs_core_0.n1405_q\] _07851_ d_lut_sg13g2_buf_1
A_14928_ [\atbs_core_0.baudrate_uart\] _07852_ d_lut_sg13g2_buf_1
A_14929_ [_07851_ _07852_] _07853_ d_lut_sg13g2_nor2_1
A_14930_ [_07850_ _07853_] _07854_ d_lut_sg13g2_and2_1
A_14931_ [_07854_] _07855_ d_lut_sg13g2_buf_1
A_14932_ [\atbs_core_0.n1397_q\] _07856_ d_lut_sg13g2_buf_1
A_14933_ [\atbs_core_0.n1395_q\] _07857_ d_lut_sg13g2_buf_1
A_14934_ [\atbs_core_0.n1393_q\] _07858_ d_lut_sg13g2_buf_1
A_14935_ [\atbs_core_0.analog_trigger_uart\] _07859_ d_lut_sg13g2_buf_1
A_14936_ [\atbs_core_0.uart_0.rx_data_strb_o\] _07860_ d_lut_sg13g2_buf_1
A_14937_ [_07859_ _07860_] _07861_ d_lut_sg13g2_nand2b_1
A_14938_ [_07857_ _07858_ _07861_] _07862_ d_lut_sg13g2_nor3_1
A_14939_ [_07856_ _07862_] _07863_ d_lut_sg13g2_nor2b_1
A_14940_ [_07863_] _07864_ d_lut_sg13g2_buf_1
A_14941_ [\atbs_core_0.n1401_q\] _07865_ d_lut_sg13g2_buf_1
A_14942_ [\atbs_core_0.n1399_q\] _07866_ d_lut_sg13g2_buf_1
A_14943_ [_07865_ _07866_] _07867_ d_lut_sg13g2_nor2_1
A_14944_ [_07864_ _07867_] _07868_ d_lut_sg13g2_and2_1
A_14945_ [_07855_ _07868_] _07869_ d_lut_sg13g2_and2_1
A_14946_ [_07869_] _07870_ d_lut_sg13g2_buf_1
A_14947_ [\atbs_core_0.uart_0.uart_rx_0.n3482_o\] _07871_ d_lut_sg13g2_buf_1
A_14948_ [\atbs_core_0.uart_0.uart_rx_0.n3480_o\] _07872_ d_lut_sg13g2_buf_1
A_14949_ [_07872_] _07873_ d_lut_sg13g2_inv_1
A_14950_ [\atbs_core_0.uart_0.uart_rx_0.n3486_o\ \atbs_core_0.uart_0.uart_rx_0.n3484_o\] _07874_ d_lut_sg13g2_nand2b_1
A_14951_ [_07874_] _07875_ d_lut_sg13g2_buf_1
A_14952_ [_07871_ _07873_ _07875_] _07876_ d_lut_sg13g2_nor3_1
A_14953_ [_07876_] _07877_ d_lut_sg13g2_buf_1
A_14954_ [\atbs_core_0.uart_0.uart_rx_0.n3472_o\] _07878_ d_lut_sg13g2_buf_1
A_14955_ [\atbs_core_0.uart_0.uart_rx_0.n3474_o\] _07879_ d_lut_sg13g2_buf_1
A_14956_ [_07879_] _07880_ d_lut_sg13g2_buf_1
A_14957_ [\atbs_core_0.uart_0.uart_rx_0.n3476_o\] _07881_ d_lut_sg13g2_buf_1
A_14958_ [\atbs_core_0.uart_0.uart_rx_0.n3478_o\] _07882_ d_lut_sg13g2_buf_1
A_14959_ [_07881_ _07882_] _07883_ d_lut_sg13g2_nor2_1
A_14960_ [_07883_] _07884_ d_lut_sg13g2_buf_1
A_14961_ [_07880_ _07884_] _07885_ d_lut_sg13g2_nand2_1
A_14962_ [_07878_ _07885_] _07886_ d_lut_sg13g2_nor2_1
A_14963_ [_07870_ _07877_ _07886_] _07887_ d_lut_sg13g2_nand3_1
A_14964_ [\atbs_core_0.n66_o\ _07887_] _00186_ d_lut_sg13g2_and2_1
A_14965_ [\atbs_core_0.debouncer_0.debounced\ \atbs_core_0.n1383_q\] _07888_ d_lut_sg13g2_xor2_1
A_14966_ [\atbs_core_0.n1382_q\ \atbs_core_0.debouncer_5.debounced\] _07889_ d_lut_sg13g2_xor2_1
A_14967_ [\atbs_core_0.n1381_q\ \atbs_core_0.debouncer_3.debounced\] _07890_ d_lut_sg13g2_xnor2_1
A_14968_ [_07653_ \atbs_core_0.control_mode_d\] _07891_ d_lut_sg13g2_xnor2_1
A_14969_ [_07710_ \atbs_core_0.adaptive_mode_d\] _07892_ d_lut_sg13g2_xnor2_1
A_14970_ [_07890_ _07891_ _07892_] _07893_ d_lut_sg13g2_nand3_1
A_14971_ [_00065_ _07850_ _07877_] _07894_ d_lut_sg13g2_nand3_1
A_14972_ [_07878_] _07895_ d_lut_sg13g2_inv_1
A_14973_ [_07895_ _07880_] _07896_ d_lut_sg13g2_nor2_1
A_14974_ [_07882_ _07881_] _07897_ d_lut_sg13g2_nor2b_1
A_14975_ [_07897_] _07898_ d_lut_sg13g2_buf_1
A_14976_ [_07894_ _07896_ _07898_] _07899_ d_lut_sg13g2_nand3b_1
A_14977_ [_07864_ _07867_] _07900_ d_lut_sg13g2_nand2_1
A_14978_ [_00064_ _07899_ _07900_] _07901_ d_lut_sg13g2_a21oi_1
A_14979_ [_07888_ _07889_ _07893_ _07901_] _07902_ d_lut_sg13g2_nor4_1
A_14980_ [\atbs_core_0.n1412_q_0_\] _07903_ d_lut_sg13g2_buf_1
A_14981_ [_07685_ _07903_] _07904_ d_lut_sg13g2_nand2b_1
A_14982_ [_07904_] _07905_ d_lut_sg13g2_buf_1
A_14983_ [_07681_ _07686_ _07905_] _07906_ d_lut_sg13g2_and3_1
A_14984_ [_07902_ _07906_] _07907_ d_lut_sg13g2_nand2b_1
A_14985_ [_00186_ _07907_] _00185_ d_lut_sg13g2_and2_1
A_14986_ [\atbs_core_0.debouncer_0.debounced\ \atbs_core_0.n1416_q\ _07653_] _07908_ d_lut_sg13g2_mux2_1
A_14987_ [_07685_] _07909_ d_lut_sg13g2_buf_1
A_14988_ [_07878_ _07879_ _07884_] _07910_ d_lut_sg13g2_nand3_1
A_14989_ [_07871_ _07873_ _07875_ _07910_] _07911_ d_lut_sg13g2_nor4_1
A_14990_ [\atbs_core_0.n72_o\] _07912_ d_lut_sg13g2_inv_1
A_14991_ [_07912_ \atbs_core_0.n1384_q\ _07908_] _07913_ d_lut_sg13g2_o21ai_1
A_14992_ [_07870_ _07911_ _07913_] _07914_ d_lut_sg13g2_a21oi_1
A_14993_ [_07903_ _07681_] _07915_ d_lut_sg13g2_nand2b_1
A_14994_ [_07914_ _07915_] _07916_ d_lut_sg13g2_nor2_1
A_14995_ [_07916_] _07917_ d_lut_sg13g2_buf_1
A_14996_ [_07909_ _07917_] _07918_ d_lut_sg13g2_and2_1
A_14997_ [_07918_] _07919_ d_lut_sg13g2_buf_1
A_14998_ [_07908_ _07919_] _07920_ d_lut_sg13g2_nand2_1
A_14999_ [_00185_ _07920_] _00188_ d_lut_sg13g2_and2_1
A_15000_ [\atbs_core_0.adaptive_ctrl_0.n1645_o\] _07921_ d_lut_sg13g2_buf_1
A_15001_ [_07758_] _07922_ d_lut_sg13g2_buf_2
A_15002_ [_07769_ _07777_] _07923_ d_lut_sg13g2_nor2_1
A_15003_ [_07773_ _07764_ _07761_ _07756_] _07924_ d_lut_sg13g2_nor4_1
A_15004_ [_07923_ _07924_] _07925_ d_lut_sg13g2_and2_1
A_15005_ [_07922_ _07925_] _07926_ d_lut_sg13g2_nand2_1
A_15006_ [\atbs_core_0.adaptive_ctrl_0.is_empty_interval\ _07921_ _07926_] _07927_ d_lut_sg13g2_nand3_1
A_15007_ [_07927_] _07928_ d_lut_sg13g2_buf_1
A_15008_ [_07809_ \atbs_core_0.adaptive_ctrl_0.delta_steps_strb\ _07928_] _00191_ d_lut_sg13g2_o21ai_1
A_15009_ [_00100_] _07929_ d_lut_sg13g2_buf_1
A_15010_ [_07929_] _07930_ d_lut_sg13g2_buf_1
A_15011_ [_07801_] _07931_ d_lut_sg13g2_buf_1
A_15012_ [_07931_] _07932_ d_lut_sg13g2_buf_1
A_15013_ [_07930_ _07932_] _07933_ d_lut_sg13g2_nand2_1
A_15014_ [\atbs_core_0.adaptive_ctrl_0.is_empty_interval\ _07921_ _07933_] _00192_ d_lut_sg13g2_mux2_1
A_15015_ [\atbs_core_0.adaptive_ctrl_0.n1784_q_0_\] _07934_ d_lut_sg13g2_buf_1
A_15016_ [_07755_ _07833_] _07935_ d_lut_sg13g2_nand2_2
A_15017_ [_07753_] _07936_ d_lut_sg13g2_buf_4
A_15018_ [\atbs_core_0.adaptive_ctrl_0.adaptive_strb\ _07936_ _07789_] _07937_ d_lut_sg13g2_nand3_1