*SPICE netlist created from verilog structural netlist module atbs_core_fixed_window_board by vlog2Spice (qflow)
*This file may contain array delimiters, not for use in simulation.

.include /foss/pdks/ihp-sg13g2/libs.ref/sg13g2_stdcell/spice/sg13g2_stdcell.spice

.subckt atbs_core_fixed_window_board VPWR VGND adaptive_mode_i bio_amp_en_o clock_i comp_lower_i comp_upper_i
+ control_mode_i dac_lower_o[0] dac_lower_o[1] dac_lower_o[2] dac_lower_o[3] dac_upper_o[0] dac_upper_o[1] dac_upper_o[2]
+ dac_upper_o[3] enable_i idle_led_o overflow_led_o phi_bias_1_o phi_bias_2_o phi_cmfb_1_o phi_cmfb_2_o
+ phi_comp_o phi_dac_lower_o phi_dac_upper_o phi_res_1_o phi_res_2_o phi_vcm_generator_1_o phi_vcm_generator_2_o reset_n_i
+ select_cap_o[0] select_cap_o[1] select_cap_o[2] select_spdt_o select_tbs_delta_steps_i signal_select_in_i spike_o trigger_start_mode_i
+ trigger_start_sampling_i uart_rx_i uart_tx_o underflow_led_o 

X_14578_ \atbs_core_0.enable_read\ VPWR VGND _07516_ sg13g2_inv_1
X_14579_ \atbs_core_0.spike_memory_0.head[3]\ VPWR VGND _07517_ sg13g2_buf_1
X_14580_ \atbs_core_0.spike_memory_0.n2438_q[3]\ VPWR VGND _07518_ sg13g2_buf_1
X_14581_ \atbs_core_0.spike_memory_0.n2438_q[2]\ VPWR VGND _07519_ sg13g2_buf_1
X_14582_ \atbs_core_0.spike_memory_0.head[2]\ VPWR VGND _07520_ sg13g2_buf_1
X_14583_ _07519_ _07520_ VPWR VGND _07521_ sg13g2_nor2b_1
X_14584_ \atbs_core_0.spike_memory_0.n2438_q[1]\ VPWR VGND _07522_ sg13g2_buf_1
X_14585_ \atbs_core_0.spike_memory_0.head[1]\ VPWR VGND _07523_ sg13g2_buf_1
X_14586_ _07522_ _07523_ VPWR VGND _07524_ sg13g2_nand2b_1
X_14587_ \atbs_core_0.spike_memory_0.head[0]\ VPWR VGND _07525_ sg13g2_buf_1
X_14588_ \atbs_core_0.spike_memory_0.n2438_q[0]\ VPWR VGND _07526_ sg13g2_buf_2
X_14589_ _07525_ _07526_ VPWR VGND _07527_ sg13g2_nor2b_1
X_14590_ _07527_ VPWR VGND _07528_ sg13g2_buf_1
X_14591_ _07523_ _07522_ VPWR VGND _07529_ sg13g2_nor2b_1
X_14592_ _07524_ _07528_ _07529_ VPWR VGND _07530_ sg13g2_a21oi_1
X_14593_ _07520_ _07519_ VPWR VGND _07531_ sg13g2_nand2b_1
X_14594_ _07521_ _07530_ _07531_ VPWR VGND _07532_ sg13g2_o21ai_1
X_14595_ _07532_ VPWR VGND _07533_ sg13g2_buf_1
X_14596_ _07518_ _07533_ VPWR VGND _07534_ sg13g2_nand2_1
X_14597_ _07518_ _07533_ VPWR VGND _07535_ sg13g2_nor2_1
X_14598_ _07517_ _07534_ _07535_ VPWR VGND _07536_ sg13g2_a21oi_1
X_14599_ \atbs_core_0.spike_memory_0.head[4]\ VPWR VGND _07537_ sg13g2_buf_1
X_14600_ \atbs_core_0.spike_memory_0.n2438_q[4]\ VPWR VGND _07538_ sg13g2_buf_1
X_14601_ _07537_ _07538_ VPWR VGND _07539_ sg13g2_xor2_1
X_14602_ _07536_ _07539_ VPWR VGND _07540_ sg13g2_xnor2_1
X_14603_ _07540_ VPWR VGND _07541_ sg13g2_buf_1
X_14604_ \atbs_core_0.spike_memory_0.head[5]\ \atbs_core_0.spike_memory_0.n2438_q[5]\ VPWR VGND _07542_ sg13g2_xor2_1
X_14605_ _07538_ _07536_ VPWR VGND _07543_ sg13g2_nand2_1
X_14606_ _07538_ _07536_ VPWR VGND _07544_ sg13g2_nor2_1
X_14607_ _07537_ _07543_ _07544_ VPWR VGND _07545_ sg13g2_a21oi_1
X_14608_ _07542_ _07545_ VPWR VGND _07546_ sg13g2_xnor2_1
X_14609_ _07546_ VPWR VGND _07547_ sg13g2_buf_1
X_14610_ _07541_ _07547_ VPWR VGND _07548_ sg13g2_nand2_1
X_14611_ _07548_ VPWR VGND _07549_ sg13g2_buf_2
X_14612_ _07521_ _07531_ VPWR VGND _07550_ sg13g2_nor2b_1
X_14613_ _07530_ _07550_ VPWR VGND _07551_ sg13g2_xnor2_1
X_14614_ _07551_ VPWR VGND _07552_ sg13g2_buf_1
X_14615_ _07517_ _07518_ VPWR VGND _07553_ sg13g2_xnor2_1
X_14616_ _07533_ _07553_ VPWR VGND _07554_ sg13g2_xor2_1
X_14617_ _07554_ VPWR VGND _07555_ sg13g2_buf_1
X_14618_ _07552_ _07555_ VPWR VGND _07556_ sg13g2_nand2_1
X_14619_ _07523_ _07522_ VPWR VGND _07557_ sg13g2_xnor2_1
X_14620_ _07557_ VPWR VGND _07558_ sg13g2_buf_1
X_14621_ _07526_ _07525_ VPWR VGND _07559_ sg13g2_nor2b_1
X_14622_ _07559_ VPWR VGND _07560_ sg13g2_buf_1
X_14623_ _07528_ _07560_ VPWR VGND _07561_ sg13g2_nor2_1
X_14624_ _07558_ _07561_ VPWR VGND _07562_ sg13g2_nand2_1
X_14625_ _07562_ VPWR VGND _07563_ sg13g2_buf_1
X_14626_ _07549_ _07556_ _07563_ VPWR VGND _07564_ sg13g2_nor3_1
X_14627_ _07516_ \atbs_core_0.spike_memory_0.n2317_o\ _07564_ VPWR VGND _07565_ sg13g2_nor3_1
X_14628_ _07565_ VPWR VGND \atbs_core_0.spike_memory_0.n2319_o\ sg13g2_buf_2
X_14629_ \atbs_core_0.spike_detector_0.n1595_q\ \atbs_core_0.spike_detector_0.lower_is_changing\ VPWR VGND _07566_ sg13g2_nor2_1
X_14630_ _07566_ VPWR VGND \atbs_core_0.spike_detector_0.n1583_o\ sg13g2_inv_1
X_14631_ \atbs_core_0.uart_0.uart_rx_0.n3413_o\ VPWR VGND _07567_ sg13g2_buf_1
X_14632_ _07567_ VPWR VGND _07568_ sg13g2_inv_1
X_14633_ \atbs_core_0.baudrate_adj_uart[7]\ VPWR VGND _07569_ sg13g2_buf_1
X_14634_ \atbs_core_0.uart_0.uart_rx_0.baud_counter_value[7]\ VPWR VGND _07570_ sg13g2_inv_1
X_14635_ _07569_ _07570_ VPWR VGND _07571_ sg13g2_nor2_1
X_14636_ _07569_ _07570_ VPWR VGND _07572_ sg13g2_nand2_1
X_14637_ _07571_ _07572_ VPWR VGND _07573_ sg13g2_nor2b_1
X_14638_ \atbs_core_0.baudrate_adj_uart[6]\ VPWR VGND _07574_ sg13g2_buf_1
X_14639_ \atbs_core_0.uart_0.uart_rx_0.baud_counter_value[6]\ VPWR VGND _07575_ sg13g2_buf_1
X_14640_ _07574_ _07575_ VPWR VGND _07576_ sg13g2_xnor2_1
X_14641_ \atbs_core_0.baudrate_adj_uart[2]\ VPWR VGND _07577_ sg13g2_buf_1
X_14642_ \atbs_core_0.uart_0.uart_rx_0.baud_counter_value[2]\ VPWR VGND _07578_ sg13g2_buf_1
X_14643_ _07577_ _07578_ VPWR VGND _07579_ sg13g2_xnor2_1
X_14644_ \atbs_core_0.baudrate_adj_uart[5]\ VPWR VGND _07580_ sg13g2_buf_1
X_14645_ \atbs_core_0.uart_0.uart_rx_0.baud_counter_value[5]\ VPWR VGND _07581_ sg13g2_buf_1
X_14646_ \atbs_core_0.uart_0.uart_rx_0.baud_counter_value[8]\ VPWR VGND _07582_ sg13g2_buf_1
X_14647_ _07580_ _07581_ _07582_ VPWR VGND _07583_ sg13g2_nand3_1
X_14648_ _07580_ _07581_ _07582_ VPWR VGND _07584_ sg13g2_or3_1
X_14649_ \atbs_core_0.baudrate_adj_uart[1]\ VPWR VGND _07585_ sg13g2_buf_1
X_14650_ \atbs_core_0.uart_0.uart_rx_0.baud_counter_value[1]\ VPWR VGND _07586_ sg13g2_buf_1
X_14651_ \atbs_core_0.uart_0.uart_rx_0.baud_counter_value[3]\ VPWR VGND _07587_ sg13g2_buf_1
X_14652_ _07585_ _07586_ _07587_ VPWR VGND _07588_ sg13g2_nand3_1
X_14653_ _07585_ _07586_ _07587_ VPWR VGND _07589_ sg13g2_or3_1
X_14654_ \atbs_core_0.baudrate_adj_uart[4]\ VPWR VGND _07590_ sg13g2_buf_1
X_14655_ \atbs_core_0.uart_0.uart_rx_0.baud_counter_value[4]\ VPWR VGND _07591_ sg13g2_buf_1
X_14656_ _07590_ _07591_ VPWR VGND _07592_ sg13g2_nand2b_1
X_14657_ _07591_ _07590_ VPWR VGND _07593_ sg13g2_nand2b_1
X_14658_ \atbs_core_0.uart_0.uart_rx_0.baud_counter_value[0]\ VPWR VGND _07594_ sg13g2_buf_1
X_14659_ \atbs_core_0.baudrate_adj_uart[0]\ VPWR VGND _07595_ sg13g2_buf_1
X_14660_ _07594_ _07595_ VPWR VGND _07596_ sg13g2_nand2b_1
X_14661_ _07595_ _07594_ VPWR VGND _07597_ sg13g2_nand2b_1
X_14662_ _07592_ _07593_ _07596_ _07597_ VPWR VGND 
+ _07598_
+ sg13g2_nand4_1
X_14663_ _07583_ _07584_ _07588_ _07589_ _07598_ VPWR 
+ VGND
+ _07599_ sg13g2_a221oi_1
X_14664_ _07573_ _07576_ _07579_ _07599_ VPWR VGND 
+ _07600_
+ sg13g2_nand4_1
X_14665_ _07600_ VPWR VGND _07601_ sg13g2_buf_1
X_14666_ \atbs_core_0.uart_0.uart_rx_0.n3456_o\ VPWR VGND _07602_ sg13g2_buf_1
X_14667_ \atbs_core_0.uart_0.uart_rx_0.n3454_o\ VPWR VGND _07603_ sg13g2_buf_1
X_14668_ _07602_ _07603_ VPWR VGND _07604_ sg13g2_nand2_1
X_14669_ \atbs_core_0.uart_0.uart_rx_0.n3462_o\ VPWR VGND _07605_ sg13g2_buf_1
X_14670_ _07601_ VPWR VGND _07606_ sg13g2_inv_1
X_14671_ _07605_ _07606_ VPWR VGND _07607_ sg13g2_nand2_1
X_14672_ \atbs_core_0.uart_0.uart_rx_0.n3384_o\ VPWR VGND _07608_ sg13g2_buf_1
X_14673_ _07604_ _07607_ _07608_ VPWR VGND _07609_ sg13g2_o21ai_1
X_14674_ _07568_ _07601_ _07609_ VPWR VGND _00000_ sg13g2_o21ai_1
X_14675_ \atbs_core_0.uart_0.uart_tx_0.baud_counter_value[5]\ VPWR VGND _07610_ sg13g2_buf_1
X_14676_ \atbs_core_0.uart_0.uart_tx_0.baud_counter_value[8]\ VPWR VGND _07611_ sg13g2_buf_1
X_14677_ _07610_ _07611_ VPWR VGND _07612_ sg13g2_or2_1
X_14678_ _07580_ _07610_ _07611_ VPWR VGND _07613_ sg13g2_nand3_1
X_14679_ _07580_ _07612_ _07613_ VPWR VGND _07614_ sg13g2_o21ai_1
X_14680_ \atbs_core_0.uart_0.uart_tx_0.baud_counter_value[0]\ VPWR VGND _07615_ sg13g2_buf_1
X_14681_ _07595_ _07615_ VPWR VGND _07616_ sg13g2_nand2b_1
X_14682_ _07574_ VPWR VGND _07617_ sg13g2_inv_1
X_14683_ \atbs_core_0.uart_0.uart_tx_0.baud_counter_value[6]\ VPWR VGND _07618_ sg13g2_buf_1
X_14684_ _07617_ _07618_ VPWR VGND _07619_ sg13g2_nand2_1
X_14685_ _07618_ _07574_ VPWR VGND _07620_ sg13g2_nand2b_1
X_14686_ _07614_ _07616_ _07619_ _07620_ VPWR VGND 
+ _07621_
+ sg13g2_nand4_1
X_14687_ _07585_ VPWR VGND _07622_ sg13g2_inv_1
X_14688_ \atbs_core_0.uart_0.uart_tx_0.baud_counter_value[1]\ VPWR VGND _07623_ sg13g2_buf_1
X_14689_ _07615_ VPWR VGND _07624_ sg13g2_inv_1
X_14690_ \atbs_core_0.uart_0.uart_tx_0.baud_counter_value[2]\ VPWR VGND _07625_ sg13g2_buf_1
X_14691_ _07577_ _07625_ VPWR VGND _07626_ sg13g2_xor2_1
X_14692_ _07595_ _07624_ _07623_ _07622_ _07626_ VPWR 
+ VGND
+ _07627_ sg13g2_a221oi_1
X_14693_ _07622_ _07623_ _07627_ VPWR VGND _07628_ sg13g2_o21ai_1
X_14694_ _07569_ \atbs_core_0.uart_0.uart_tx_0.baud_counter_value[7]\ VPWR VGND _07629_ sg13g2_xnor2_1
X_14695_ \atbs_core_0.uart_0.uart_tx_0.baud_counter_value[3]\ VPWR VGND _07630_ sg13g2_buf_1
X_14696_ _07585_ _07630_ VPWR VGND _07631_ sg13g2_xnor2_1
X_14697_ \atbs_core_0.uart_0.uart_tx_0.baud_counter_value[4]\ VPWR VGND _07632_ sg13g2_buf_1
X_14698_ _07590_ _07632_ VPWR VGND _07633_ sg13g2_nand2b_1
X_14699_ _07632_ _07590_ VPWR VGND _07634_ sg13g2_nand2b_1
X_14700_ _07629_ _07631_ _07633_ _07634_ VPWR VGND 
+ _07635_
+ sg13g2_nand4_1
X_14701_ _07621_ _07628_ _07635_ VPWR VGND _07636_ sg13g2_nor3_1
X_14702_ _07636_ VPWR VGND _07637_ sg13g2_buf_1
X_14703_ \atbs_core_0.uart_0.uart_tx_0.n3286_o\ VPWR VGND _07638_ sg13g2_buf_1
X_14704_ _00062_ VPWR VGND _07639_ sg13g2_inv_1
X_14705_ \atbs_core_0.uart_0.uart_tx_0.n3295_o\ VPWR VGND _07640_ sg13g2_buf_1
X_14706_ _07638_ _07639_ _07640_ VPWR VGND _07641_ sg13g2_a21oi_1
X_14707_ _07637_ _07641_ VPWR VGND _00004_ sg13g2_nor2_1
X_14708_ \atbs_core_0.uart_0.uart_tx_0.n3300_o\ VPWR VGND _07642_ sg13g2_buf_1
X_14709_ \atbs_core_0.uart_0.uart_tx_0.n3345_q[1]\ VPWR VGND _07643_ sg13g2_buf_1
X_14710_ \atbs_core_0.uart_0.uart_tx_0.n3345_q[0]\ VPWR VGND _07644_ sg13g2_buf_1
X_14711_ \atbs_core_0.uart_0.uart_tx_0.n3345_q[2]\ VPWR VGND _07645_ sg13g2_buf_1
X_14712_ _07643_ _07644_ _07645_ _07637_ VPWR VGND 
+ _07646_
+ sg13g2_nand4_1
X_14713_ \atbs_core_0.uart_0.uart_tx_0.n3264_o\ VPWR VGND _07647_ sg13g2_buf_1
X_14714_ _07642_ _07637_ _07646_ _07647_ VPWR VGND 
+ _07648_
+ sg13g2_a22oi_1
X_14715_ _07648_ VPWR VGND _00005_ sg13g2_inv_1
X_14716_ \atbs_core_0.uart_0.uart_tx_0.n3323_o\ VPWR VGND _07649_ sg13g2_buf_1
X_14717_ _07638_ _07649_ \atbs_core_0.memory2uart_0.n2605_q\ VPWR VGND _07650_ sg13g2_o21ai_1
X_14718_ _07640_ _07650_ VPWR VGND _07651_ sg13g2_nor2b_1
X_14719_ _07642_ _07637_ VPWR VGND _07652_ sg13g2_nor2_1
X_14720_ _07637_ _07651_ _07652_ VPWR VGND _00003_ sg13g2_a21oi_1
X_14721_ \atbs_core_0.control_mode_debounced\ VPWR VGND _07653_ sg13g2_buf_16
X_14722_ _07653_ \atbs_core_0.debouncer_4.debounced\ VPWR VGND _07654_ sg13g2_nor2b_1
X_14723_ _07653_ \atbs_core_0.enable_analog_uart\ _07654_ VPWR VGND _07655_ sg13g2_a21oi_1
X_14724_ _07655_ VPWR VGND _07656_ sg13g2_inv_1
X_14725_ _07656_ VPWR VGND _07657_ sg13g2_buf_1
X_14726_ _07657_ VPWR VGND _07658_ sg13g2_buf_1
X_14727_ _07658_ VPWR VGND bio_amp_en_o sg13g2_buf_1
X_14728_ _07608_ _07602_ _07603_ VPWR VGND _07659_ sg13g2_nand3_1
X_14729_ \atbs_core_0.uart_0.uart_rx_0.n3438_o\ VPWR VGND _07660_ sg13g2_buf_1
X_14730_ _07594_ _07578_ VPWR VGND _07661_ sg13g2_or2_1
X_14731_ _07585_ _07594_ _07578_ VPWR VGND _07662_ sg13g2_nand3_1
X_14732_ _07585_ _07661_ _07662_ VPWR VGND _07663_ sg13g2_o21ai_1
X_14733_ _07575_ _07569_ VPWR VGND _07664_ sg13g2_xnor2_1
X_14734_ _00057_ _07663_ _07664_ VPWR VGND _07665_ sg13g2_nand3_1
X_14735_ _07591_ \atbs_core_0.uart_0.uart_rx_0.baud_counter_value[7]\ VPWR VGND _07666_ sg13g2_or2_1
X_14736_ _07591_ _07580_ \atbs_core_0.uart_0.uart_rx_0.baud_counter_value[7]\ VPWR VGND _07667_ sg13g2_nand3_1
X_14737_ _07580_ _07666_ _07667_ VPWR VGND _07668_ sg13g2_o21ai_1
X_14738_ _07586_ _07577_ VPWR VGND _07669_ sg13g2_xor2_1
X_14739_ _07587_ _07590_ VPWR VGND _07670_ sg13g2_xor2_1
X_14740_ _07581_ _07574_ VPWR VGND _07671_ sg13g2_xor2_1
X_14741_ _07669_ _07670_ _07671_ VPWR VGND _07672_ sg13g2_nor3_1
X_14742_ _07665_ _07668_ _07672_ VPWR VGND _07673_ sg13g2_nand3b_1
X_14743_ _07660_ _07673_ VPWR VGND _07674_ sg13g2_nand2_1
X_14744_ _07607_ _07659_ _07674_ VPWR VGND _00002_ sg13g2_o21ai_1
X_14745_ \atbs_core_0.uart_0.uart_rx_0.n3399_o\ VPWR VGND _07675_ sg13g2_buf_1
X_14746_ uart_rx_i VPWR VGND _07676_ sg13g2_inv_1
X_14747_ _07675_ _07676_ _07601_ _07567_ VPWR VGND 
+ _07677_
+ sg13g2_a22oi_1
X_14748_ _07677_ VPWR VGND _00001_ sg13g2_inv_1
X_14749_ \atbs_core_0.dac_control_0.n1833_o\ VPWR VGND _07678_ sg13g2_buf_1
X_14750_ _07678_ VPWR VGND _07679_ sg13g2_buf_1
X_14751_ _07655_ VPWR VGND _07680_ sg13g2_buf_1
X_14752_ \atbs_core_0.n1412_q[2]\ VPWR VGND _07681_ sg13g2_buf_1
X_14753_ _07681_ VPWR VGND _07682_ sg13g2_inv_1
X_14754_ _07682_ _00056_ VPWR VGND _07683_ sg13g2_nand2_1
X_14755_ _07683_ VPWR VGND _07684_ sg13g2_buf_1
X_14756_ \atbs_core_0.n1412_q[1]\ VPWR VGND _07685_ sg13g2_buf_1
X_14757_ \atbs_core_0.n1412_q[0]\ _07685_ VPWR VGND _07686_ sg13g2_nand2b_1
X_14758_ \atbs_core_0.main_counter_value[8]\ VPWR VGND _07687_ sg13g2_buf_1
X_14759_ \atbs_core_0.main_counter_value[11]\ VPWR VGND _07688_ sg13g2_buf_1
X_14760_ \atbs_core_0.main_counter_value[15]\ VPWR VGND _07689_ sg13g2_buf_1
X_14761_ _07687_ _07688_ _07689_ \atbs_core_0.main_counter_value[14]\ VPWR VGND 
+ _07690_
+ sg13g2_nor4_1
X_14762_ \atbs_core_0.main_counter_value[9]\ _07690_ VPWR VGND _07691_ sg13g2_nor2b_1
X_14763_ \atbs_core_0.main_counter_value[12]\ VPWR VGND _07692_ sg13g2_buf_1
X_14764_ \atbs_core_0.main_counter_value[10]\ \atbs_core_0.main_counter_value[13]\ _07692_ VPWR VGND _07693_ sg13g2_nor3_1
X_14765_ \atbs_core_0.main_counter_value[3]\ _07691_ _07693_ VPWR VGND _07694_ sg13g2_nand3_1
X_14766_ \atbs_core_0.main_counter_value[18]\ VPWR VGND _07695_ sg13g2_buf_1
X_14767_ _07695_ \atbs_core_0.main_counter_value[19]\ VPWR VGND _07696_ sg13g2_nor2_1
X_14768_ \atbs_core_0.main_counter_value[5]\ VPWR VGND _07697_ sg13g2_buf_1
X_14769_ \atbs_core_0.main_counter_value[4]\ VPWR VGND _07698_ sg13g2_buf_1
X_14770_ _07697_ _07698_ \atbs_core_0.main_counter_value[6]\ \atbs_core_0.main_counter_value[7]\ VPWR VGND 
+ _07699_
+ sg13g2_nor4_1
X_14771_ \atbs_core_0.main_counter_value[0]\ VPWR VGND _07700_ sg13g2_buf_1
X_14772_ \atbs_core_0.main_counter_value[1]\ VPWR VGND _07701_ sg13g2_buf_1
X_14773_ _07700_ _07701_ \atbs_core_0.main_counter_value[2]\ VPWR VGND _07702_ sg13g2_nor3_1
X_14774_ _07696_ _07699_ _07702_ VPWR VGND _07703_ sg13g2_nand3_1
X_14775_ \atbs_core_0.main_counter_value[17]\ VPWR VGND _07704_ sg13g2_buf_1
X_14776_ \atbs_core_0.main_counter_value[16]\ VPWR VGND _07705_ sg13g2_buf_1
X_14777_ _07704_ _07705_ VPWR VGND _07706_ sg13g2_nor2b_1
X_14778_ _07703_ _07706_ VPWR VGND _07707_ sg13g2_nand2b_1
X_14779_ _07684_ _07686_ _07694_ _07707_ VPWR VGND 
+ _07708_
+ sg13g2_nor4_1
X_14780_ _07708_ VPWR VGND _07709_ sg13g2_buf_1
X_14781_ \atbs_core_0.adaptive_mode_debounced\ VPWR VGND _07710_ sg13g2_buf_4
X_14782_ _07710_ \atbs_core_0.adaptive_mode_uart\ _07653_ VPWR VGND _07711_ sg13g2_mux2_2
X_14783_ _07711_ VPWR VGND _07712_ sg13g2_buf_8
X_14784_ _07712_ VPWR VGND _07713_ sg13g2_buf_2
X_14785_ \atbs_core_0.adaptive_ctrl_0.delta_steps_strb\ VPWR VGND _07714_ sg13g2_inv_1
X_14786_ \atbs_core_0.adaptive_ctrl_0.adapt_on_overflow\ VPWR VGND _07715_ sg13g2_buf_2
X_14787_ \atbs_core_0.spike_detector_0.lock_detection\ VPWR VGND _07716_ sg13g2_buf_1
X_14788_ \atbs_core_0.detection_en\ VPWR VGND _07717_ sg13g2_inv_1
X_14789_ _07716_ _07717_ VPWR VGND _07718_ sg13g2_nor2_1
X_14790_ \atbs_core_0.adaptive_ctrl_0.n1705_o[5]\ VPWR VGND _07719_ sg13g2_buf_2
X_14791_ \atbs_core_0.adaptive_ctrl_0.n1705_o[4]\ VPWR VGND _07720_ sg13g2_buf_2
X_14792_ \atbs_core_0.adaptive_ctrl_0.n1705_o[6]\ VPWR VGND _07721_ sg13g2_buf_2
X_14793_ \atbs_core_0.adaptive_ctrl_0.n1785_q[7]\ VPWR VGND _07722_ sg13g2_buf_2
X_14794_ _07719_ _07720_ _07721_ _07722_ VPWR VGND 
+ _07723_
+ sg13g2_nor4_2
X_14795_ \atbs_core_0.adaptive_ctrl_0.n1705_o[1]\ VPWR VGND _07724_ sg13g2_buf_2
X_14796_ \atbs_core_0.adaptive_ctrl_0.n1705_o[0]\ VPWR VGND _07725_ sg13g2_buf_2
X_14797_ _07724_ _07725_ VPWR VGND _07726_ sg13g2_nor2_2
X_14798_ \atbs_core_0.adaptive_ctrl_0.n1705_o[3]\ VPWR VGND _07727_ sg13g2_buf_1
X_14799_ \atbs_core_0.adaptive_ctrl_0.n1705_o[2]\ VPWR VGND _07728_ sg13g2_buf_2
X_14800_ _07727_ _07728_ VPWR VGND _07729_ sg13g2_nor2_1
X_14801_ _07712_ _07723_ _07726_ _07729_ VPWR VGND 
+ _07730_
+ sg13g2_nand4_1
X_14802_ \atbs_core_0.n1386_q\ _07712_ VPWR VGND _07731_ sg13g2_or2_1
X_14803_ \atbs_core_0.comp_upper_sync\ _07718_ _07730_ _07731_ VPWR VGND 
+ _07732_
+ sg13g2_and4_1
X_14804_ _07732_ VPWR VGND _07733_ sg13g2_buf_8
X_14805_ \atbs_core_0.adaptive_mode_uart\ _07653_ VPWR VGND _07734_ sg13g2_nand2_1
X_14806_ _07653_ _07710_ VPWR VGND _07735_ sg13g2_nand2b_1
X_14807_ \atbs_core_0.adaptive_ctrl_0.n1710_o[5]\ VPWR VGND _07736_ sg13g2_buf_8
X_14808_ \atbs_core_0.adaptive_ctrl_0.n1710_o[4]\ VPWR VGND _07737_ sg13g2_buf_4
X_14809_ \atbs_core_0.adaptive_ctrl_0.n1710_o[6]\ VPWR VGND _07738_ sg13g2_buf_4
X_14810_ \atbs_core_0.adaptive_ctrl_0.n1786_q[7]\ VPWR VGND _07739_ sg13g2_buf_2
X_14811_ _07736_ _07737_ _07738_ _07739_ VPWR VGND 
+ _07740_
+ sg13g2_nor4_1
X_14812_ \atbs_core_0.adaptive_ctrl_0.n1710_o[1]\ VPWR VGND _07741_ sg13g2_buf_4
X_14813_ \atbs_core_0.adaptive_ctrl_0.n1710_o[0]\ VPWR VGND _07742_ sg13g2_buf_4
X_14814_ \atbs_core_0.adaptive_ctrl_0.n1710_o[3]\ VPWR VGND _07743_ sg13g2_buf_4
X_14815_ \atbs_core_0.adaptive_ctrl_0.n1710_o[2]\ VPWR VGND _07744_ sg13g2_buf_4
X_14816_ _07741_ _07742_ _07743_ _07744_ VPWR VGND 
+ _07745_
+ sg13g2_nor4_1
X_14817_ _07716_ \atbs_core_0.detection_en\ \atbs_core_0.comp_lower_sync\ VPWR VGND _07746_ sg13g2_nand3b_1
X_14818_ _07734_ _07735_ _07740_ _07745_ _07746_ VPWR 
+ VGND
+ _07747_ sg13g2_a221oi_1
X_14819_ \atbs_core_0.n1387_q\ \atbs_core_0.comp_lower_sync\ VPWR VGND _07748_ sg13g2_nand2_1
X_14820_ _07716_ _07717_ _07712_ _07748_ VPWR VGND 
+ _07749_
+ sg13g2_nor4_1
X_14821_ _00053_ _07747_ _07749_ VPWR VGND _07750_ sg13g2_nor3_2
X_14822_ _07750_ VPWR VGND _07751_ sg13g2_buf_8
X_14823_ _07733_ _07751_ VPWR VGND _07752_ sg13g2_nor2_2
X_14824_ _07752_ VPWR VGND _07753_ sg13g2_buf_8
X_14825_ _07753_ VPWR VGND _07754_ sg13g2_inv_8
X_14826_ _07754_ VPWR VGND _07755_ sg13g2_buf_16
X_14827_ \atbs_core_0.adaptive_ctrl_0.delta_steps[1]\ VPWR VGND _07756_ sg13g2_buf_4
X_14828_ _07756_ VPWR VGND _07757_ sg13g2_inv_1
X_14829_ \atbs_core_0.adaptive_ctrl_0.delta_steps[0]\ VPWR VGND _07758_ sg13g2_buf_1
X_14830_ _07742_ _07758_ VPWR VGND _07759_ sg13g2_nand2b_1
X_14831_ _07741_ _07757_ _07759_ VPWR VGND _07760_ sg13g2_a21oi_1
X_14832_ \atbs_core_0.adaptive_ctrl_0.delta_steps[2]\ VPWR VGND _07761_ sg13g2_buf_4
X_14833_ _07744_ _07761_ VPWR VGND _07762_ sg13g2_nand2b_1
X_14834_ _07741_ _07757_ _07762_ VPWR VGND _07763_ sg13g2_o21ai_1
X_14835_ \atbs_core_0.adaptive_ctrl_0.delta_steps[3]\ VPWR VGND _07764_ sg13g2_buf_4
X_14836_ _07764_ VPWR VGND _07765_ sg13g2_inv_2
X_14837_ _07761_ VPWR VGND _07766_ sg13g2_inv_1
X_14838_ _07743_ _07765_ _07766_ _07744_ VPWR VGND 
+ _07767_
+ sg13g2_a22oi_1
X_14839_ _07760_ _07763_ _07767_ VPWR VGND _07768_ sg13g2_o21ai_1
X_14840_ \atbs_core_0.adaptive_ctrl_0.delta_steps[6]\ VPWR VGND _07769_ sg13g2_buf_4
X_14841_ _07738_ _07769_ VPWR VGND _07770_ sg13g2_nand2b_1
X_14842_ _07769_ _07738_ VPWR VGND _07771_ sg13g2_nand2b_1
X_14843_ \atbs_core_0.adaptive_ctrl_0.delta_steps[4]\ VPWR VGND _07772_ sg13g2_buf_1
X_14844_ _07772_ VPWR VGND _07773_ sg13g2_buf_4
X_14845_ _07737_ _07773_ VPWR VGND _07774_ sg13g2_xnor2_1
X_14846_ _07743_ VPWR VGND _07775_ sg13g2_inv_1
X_14847_ _07736_ \atbs_core_0.adaptive_ctrl_0.delta_steps[5]\ VPWR VGND _07776_ sg13g2_or2_1
X_14848_ \atbs_core_0.adaptive_ctrl_0.delta_steps[5]\ VPWR VGND _07777_ sg13g2_buf_4
X_14849_ _07736_ _07777_ VPWR VGND _07778_ sg13g2_nand2_1
X_14850_ _07775_ _07764_ _07776_ _07778_ _07739_ VPWR 
+ VGND
+ _07779_ sg13g2_a221oi_1
X_14851_ _07770_ _07771_ _07774_ _07779_ VPWR VGND 
+ _07780_
+ sg13g2_and4_1
X_14852_ _07737_ VPWR VGND _07781_ sg13g2_inv_1
X_14853_ _07781_ _07773_ _07777_ VPWR VGND _07782_ sg13g2_o21ai_1
X_14854_ _07781_ _07777_ _07773_ VPWR VGND _07783_ sg13g2_nor3_1
X_14855_ _07736_ _07782_ _07783_ VPWR VGND _07784_ sg13g2_a21o_1
X_14856_ _07739_ _07771_ VPWR VGND _07785_ sg13g2_nand2b_1
X_14857_ _07768_ _07780_ _07784_ _07770_ _07785_ VPWR 
+ VGND
+ _07786_ sg13g2_a221oi_1
X_14858_ _07786_ VPWR VGND _07787_ sg13g2_buf_2
X_14859_ _07787_ VPWR VGND _07788_ sg13g2_buf_4
X_14860_ _07788_ VPWR VGND _07789_ sg13g2_buf_8
X_14861_ _00054_ VPWR VGND _07790_ sg13g2_buf_1
X_14862_ _00052_ _07790_ VPWR VGND _07791_ sg13g2_or2_1
X_14863_ _07715_ _07755_ _07789_ _07791_ VPWR VGND 
+ _07792_
+ sg13g2_nor4_1
X_14864_ _07714_ _07792_ VPWR VGND _07793_ sg13g2_nor2_1
X_14865_ _07793_ VPWR VGND _07794_ sg13g2_buf_1
X_14866_ \atbs_core_0.comp_upper_sync\ _07718_ _07730_ _07731_ VPWR VGND 
+ _07795_
+ sg13g2_nand4_1
X_14867_ _07712_ _07740_ _07745_ VPWR VGND _07796_ sg13g2_nand3_1
X_14868_ \atbs_core_0.n1387_q\ _07712_ _07796_ VPWR VGND _07797_ sg13g2_o21ai_1
X_14869_ _07797_ _07746_ VPWR VGND _07798_ sg13g2_or2_1
X_14870_ _07798_ VPWR VGND _07799_ sg13g2_buf_1
X_14871_ _07795_ _07799_ VPWR VGND _07800_ sg13g2_and2_1
X_14872_ _07800_ VPWR VGND _07801_ sg13g2_buf_1
X_14873_ _07713_ _07801_ VPWR VGND _07802_ sg13g2_nor2_1
X_14874_ _07713_ _07794_ _07802_ VPWR VGND _07803_ sg13g2_a21oi_1
X_14875_ _07709_ _07803_ VPWR VGND _07804_ sg13g2_nor2b_1
X_14876_ _07804_ VPWR VGND _07805_ sg13g2_buf_2
X_14877_ _07805_ VPWR VGND \atbs_core_0.dac_control_0.sync_chain_0.async_i\ sg13g2_inv_1
X_14878_ _07678_ \atbs_core_0.dac_control_0.sync_chain_0.async_i\ VPWR VGND _07806_ sg13g2_nor2_1
X_14879_ _07679_ _07680_ _07806_ VPWR VGND \atbs_core_0.dac_control_0.n1836_o\ sg13g2_a21oi_1
X_14880_ _07713_ VPWR VGND _07807_ sg13g2_buf_1
X_14881_ _07715_ VPWR VGND _07808_ sg13g2_inv_1
X_14882_ _07808_ VPWR VGND _07809_ sg13g2_buf_4
X_14883_ _07728_ VPWR VGND _07810_ sg13g2_inv_1
X_14884_ _07810_ _07761_ VPWR VGND _07811_ sg13g2_nand2_1
X_14885_ _07724_ VPWR VGND _07812_ sg13g2_inv_1
X_14886_ _07725_ _07758_ VPWR VGND _07813_ sg13g2_nor2b_1
X_14887_ _07812_ _07756_ _07813_ VPWR VGND _07814_ sg13g2_o21ai_1
X_14888_ _07812_ _07756_ VPWR VGND _07815_ sg13g2_nand2_1
X_14889_ _07811_ _07814_ _07815_ VPWR VGND _07816_ sg13g2_and3_1
X_14890_ _07777_ _07719_ VPWR VGND _07817_ sg13g2_nor2b_1
X_14891_ _07772_ _07720_ VPWR VGND _07818_ sg13g2_nor2b_1
X_14892_ _07817_ _07818_ VPWR VGND _07819_ sg13g2_nor2_1
X_14893_ _07727_ _07765_ _07766_ _07728_ VPWR VGND 
+ _07820_
+ sg13g2_a22oi_1
X_14894_ _07769_ _07721_ VPWR VGND _07821_ sg13g2_nor2b_1
X_14895_ _07722_ _07821_ VPWR VGND _07822_ sg13g2_nor2_1
X_14896_ _07819_ _07820_ _07822_ VPWR VGND _07823_ sg13g2_nand3_1
X_14897_ _07719_ _07777_ VPWR VGND _07824_ sg13g2_nand2b_1
X_14898_ _07721_ _07769_ VPWR VGND _07825_ sg13g2_nand2b_1
X_14899_ _00055_ _07824_ _07825_ VPWR VGND _07826_ sg13g2_nand3_1
X_14900_ _07722_ _07817_ _07818_ _07821_ VPWR VGND 
+ _07827_
+ sg13g2_nor4_1
X_14901_ _07727_ _07764_ VPWR VGND _07828_ sg13g2_nor2b_1
X_14902_ _07720_ _07773_ VPWR VGND _07829_ sg13g2_nor2b_1
X_14903_ _07817_ _07818_ _07828_ _07829_ VPWR VGND 
+ _07830_
+ sg13g2_or4_1
X_14904_ _07826_ _07822_ _07827_ _07830_ VPWR VGND 
+ _07831_
+ sg13g2_a22oi_1
X_14905_ _07816_ _07823_ _07831_ VPWR VGND _07832_ sg13g2_o21ai_1
X_14906_ _07832_ VPWR VGND _07833_ sg13g2_buf_4
X_14907_ _07833_ VPWR VGND _07834_ sg13g2_buf_8
X_14908_ _07809_ _07834_ VPWR VGND _07835_ sg13g2_nand2_1
X_14909_ _00051_ VPWR VGND _07836_ sg13g2_buf_1
X_14910_ _07733_ _07751_ _07836_ VPWR VGND _07837_ sg13g2_o21ai_1
X_14911_ _07837_ VPWR VGND _07838_ sg13g2_buf_1
X_14912_ _07791_ _07838_ VPWR VGND _07839_ sg13g2_nor2_1
X_14913_ _07835_ _07839_ _07714_ VPWR VGND _07840_ sg13g2_a21oi_1
X_14914_ _07807_ _07840_ _07802_ VPWR VGND _07841_ sg13g2_a21o_1
X_14915_ _07709_ _07841_ VPWR VGND _07842_ sg13g2_nor2_1
X_14916_ _07842_ VPWR VGND _07843_ sg13g2_buf_1
X_14917_ _07843_ VPWR VGND \atbs_core_0.dac_control_1.sync_chain_0.async_i\ sg13g2_inv_1
X_14918_ _07657_ VPWR VGND _07844_ sg13g2_buf_1
X_14919_ \atbs_core_0.dac_control_1.sync_chain_0.async_i\ _07844_ \atbs_core_0.dac_control_1.n1981_o\ VPWR VGND \atbs_core_0.dac_control_1.n1984_o\ sg13g2_mux2_1
X_14920_ _07647_ VPWR VGND _07845_ sg13g2_inv_1
X_14921_ _07645_ VPWR VGND _07846_ sg13g2_inv_1
X_14922_ _07643_ _07644_ VPWR VGND _07847_ sg13g2_nand2_1
X_14923_ _07845_ _07846_ _07847_ VPWR VGND _07848_ sg13g2_nor3_1
X_14924_ _07649_ _07848_ _07637_ VPWR VGND \atbs_core_0.uart_0.uart_tx_0.n3331_o[2]\ sg13g2_mux2_1
X_14925_ \atbs_core_0.atbs_win_length_uart\ VPWR VGND _07849_ sg13g2_buf_1
X_14926_ \atbs_core_0.atbs_max_delta_steps_uart\ _07849_ VPWR VGND _07850_ sg13g2_nor2_1
X_14927_ \atbs_core_0.n1405_q\ VPWR VGND _07851_ sg13g2_buf_1
X_14928_ \atbs_core_0.baudrate_uart\ VPWR VGND _07852_ sg13g2_buf_1
X_14929_ _07851_ _07852_ VPWR VGND _07853_ sg13g2_nor2_1
X_14930_ _07850_ _07853_ VPWR VGND _07854_ sg13g2_and2_1
X_14931_ _07854_ VPWR VGND _07855_ sg13g2_buf_1
X_14932_ \atbs_core_0.n1397_q\ VPWR VGND _07856_ sg13g2_buf_1
X_14933_ \atbs_core_0.n1395_q\ VPWR VGND _07857_ sg13g2_buf_1
X_14934_ \atbs_core_0.n1393_q\ VPWR VGND _07858_ sg13g2_buf_1
X_14935_ \atbs_core_0.analog_trigger_uart\ VPWR VGND _07859_ sg13g2_buf_1
X_14936_ \atbs_core_0.uart_0.rx_data_strb_o\ VPWR VGND _07860_ sg13g2_buf_1
X_14937_ _07859_ _07860_ VPWR VGND _07861_ sg13g2_nand2b_1
X_14938_ _07857_ _07858_ _07861_ VPWR VGND _07862_ sg13g2_nor3_1
X_14939_ _07856_ _07862_ VPWR VGND _07863_ sg13g2_nor2b_1
X_14940_ _07863_ VPWR VGND _07864_ sg13g2_buf_1
X_14941_ \atbs_core_0.n1401_q\ VPWR VGND _07865_ sg13g2_buf_1
X_14942_ \atbs_core_0.n1399_q\ VPWR VGND _07866_ sg13g2_buf_1
X_14943_ _07865_ _07866_ VPWR VGND _07867_ sg13g2_nor2_1
X_14944_ _07864_ _07867_ VPWR VGND _07868_ sg13g2_and2_1
X_14945_ _07855_ _07868_ VPWR VGND _07869_ sg13g2_and2_1
X_14946_ _07869_ VPWR VGND _07870_ sg13g2_buf_1
X_14947_ \atbs_core_0.uart_0.uart_rx_0.n3482_o\ VPWR VGND _07871_ sg13g2_buf_1
X_14948_ \atbs_core_0.uart_0.uart_rx_0.n3480_o\ VPWR VGND _07872_ sg13g2_buf_1
X_14949_ _07872_ VPWR VGND _07873_ sg13g2_inv_1
X_14950_ \atbs_core_0.uart_0.uart_rx_0.n3486_o\ \atbs_core_0.uart_0.uart_rx_0.n3484_o\ VPWR VGND _07874_ sg13g2_nand2b_1
X_14951_ _07874_ VPWR VGND _07875_ sg13g2_buf_1
X_14952_ _07871_ _07873_ _07875_ VPWR VGND _07876_ sg13g2_nor3_1
X_14953_ _07876_ VPWR VGND _07877_ sg13g2_buf_1
X_14954_ \atbs_core_0.uart_0.uart_rx_0.n3472_o\ VPWR VGND _07878_ sg13g2_buf_1
X_14955_ \atbs_core_0.uart_0.uart_rx_0.n3474_o\ VPWR VGND _07879_ sg13g2_buf_1
X_14956_ _07879_ VPWR VGND _07880_ sg13g2_buf_1
X_14957_ \atbs_core_0.uart_0.uart_rx_0.n3476_o\ VPWR VGND _07881_ sg13g2_buf_1
X_14958_ \atbs_core_0.uart_0.uart_rx_0.n3478_o\ VPWR VGND _07882_ sg13g2_buf_1
X_14959_ _07881_ _07882_ VPWR VGND _07883_ sg13g2_nor2_1
X_14960_ _07883_ VPWR VGND _07884_ sg13g2_buf_1
X_14961_ _07880_ _07884_ VPWR VGND _07885_ sg13g2_nand2_1
X_14962_ _07878_ _07885_ VPWR VGND _07886_ sg13g2_nor2_1
X_14963_ _07870_ _07877_ _07886_ VPWR VGND _07887_ sg13g2_nand3_1
X_14964_ \atbs_core_0.n66_o\ _07887_ VPWR VGND _00186_ sg13g2_and2_1
X_14965_ \atbs_core_0.debouncer_0.debounced\ \atbs_core_0.n1383_q\ VPWR VGND _07888_ sg13g2_xor2_1
X_14966_ \atbs_core_0.n1382_q\ \atbs_core_0.debouncer_5.debounced\ VPWR VGND _07889_ sg13g2_xor2_1
X_14967_ \atbs_core_0.n1381_q\ \atbs_core_0.debouncer_3.debounced\ VPWR VGND _07890_ sg13g2_xnor2_1
X_14968_ _07653_ \atbs_core_0.control_mode_d\ VPWR VGND _07891_ sg13g2_xnor2_1
X_14969_ _07710_ \atbs_core_0.adaptive_mode_d\ VPWR VGND _07892_ sg13g2_xnor2_1
X_14970_ _07890_ _07891_ _07892_ VPWR VGND _07893_ sg13g2_nand3_1
X_14971_ _00065_ _07850_ _07877_ VPWR VGND _07894_ sg13g2_nand3_1
X_14972_ _07878_ VPWR VGND _07895_ sg13g2_inv_1
X_14973_ _07895_ _07880_ VPWR VGND _07896_ sg13g2_nor2_1
X_14974_ _07882_ _07881_ VPWR VGND _07897_ sg13g2_nor2b_1
X_14975_ _07897_ VPWR VGND _07898_ sg13g2_buf_1
X_14976_ _07894_ _07896_ _07898_ VPWR VGND _07899_ sg13g2_nand3b_1
X_14977_ _07864_ _07867_ VPWR VGND _07900_ sg13g2_nand2_1
X_14978_ _00064_ _07899_ _07900_ VPWR VGND _07901_ sg13g2_a21oi_1
X_14979_ _07888_ _07889_ _07893_ _07901_ VPWR VGND 
+ _07902_
+ sg13g2_nor4_1
X_14980_ \atbs_core_0.n1412_q[0]\ VPWR VGND _07903_ sg13g2_buf_1
X_14981_ _07685_ _07903_ VPWR VGND _07904_ sg13g2_nand2b_1
X_14982_ _07904_ VPWR VGND _07905_ sg13g2_buf_1
X_14983_ _07681_ _07686_ _07905_ VPWR VGND _07906_ sg13g2_and3_1
X_14984_ _07902_ _07906_ VPWR VGND _07907_ sg13g2_nand2b_1
X_14985_ _00186_ _07907_ VPWR VGND _00185_ sg13g2_and2_1
X_14986_ \atbs_core_0.debouncer_0.debounced\ \atbs_core_0.n1416_q\ _07653_ VPWR VGND _07908_ sg13g2_mux2_1
X_14987_ _07685_ VPWR VGND _07909_ sg13g2_buf_1
X_14988_ _07878_ _07879_ _07884_ VPWR VGND _07910_ sg13g2_nand3_1
X_14989_ _07871_ _07873_ _07875_ _07910_ VPWR VGND 
+ _07911_
+ sg13g2_nor4_1
X_14990_ \atbs_core_0.n72_o\ VPWR VGND _07912_ sg13g2_inv_1
X_14991_ _07912_ \atbs_core_0.n1384_q\ _07908_ VPWR VGND _07913_ sg13g2_o21ai_1
X_14992_ _07870_ _07911_ _07913_ VPWR VGND _07914_ sg13g2_a21oi_1
X_14993_ _07903_ _07681_ VPWR VGND _07915_ sg13g2_nand2b_1
X_14994_ _07914_ _07915_ VPWR VGND _07916_ sg13g2_nor2_1
X_14995_ _07916_ VPWR VGND _07917_ sg13g2_buf_1
X_14996_ _07909_ _07917_ VPWR VGND _07918_ sg13g2_and2_1
X_14997_ _07918_ VPWR VGND _07919_ sg13g2_buf_1
X_14998_ _07908_ _07919_ VPWR VGND _07920_ sg13g2_nand2_1
X_14999_ _00185_ _07920_ VPWR VGND _00188_ sg13g2_and2_1
X_15000_ \atbs_core_0.adaptive_ctrl_0.n1645_o\ VPWR VGND _07921_ sg13g2_buf_1
X_15001_ _07758_ VPWR VGND _07922_ sg13g2_buf_2
X_15002_ _07769_ _07777_ VPWR VGND _07923_ sg13g2_nor2_1
X_15003_ _07773_ _07764_ _07761_ _07756_ VPWR VGND 
+ _07924_
+ sg13g2_nor4_1